version 3
run Single-UE-0-20241106-10:23:23-17788
attr configname Single-UE
attr datetime 20241106-10:23:23
attr datetimef 20241106-102323
attr experiment Single-UE
attr inifile omnetpp.ini
attr iterationvars ""
attr iterationvarsd ""
attr iterationvarsf ""
attr measurement ""
attr network urbandense5gsim.simulations.UrbanDenseNetwork
attr processid 17788
attr repetition 0
attr replication #0
attr resultdir results
attr runnumber 0
attr seedset 0
config image-path ../images;../../simu5g/images;../../inet4.5/images
config *.gnb.mobility.initialX 500m
config *.gnb.mobility.initialY 500m
config *.numUe 1
config *.ue[*].mobility.initialX 500m
config *.ue[*].mobility.initialY 900m
config *.ue[*].macCellId 0
config *.ue[*].masterId 0
config *.ue[*].nrMacCellId 1
config *.ue[*].nrMasterId 1
config *.ue[*].numApps 1
config *.server.numApps 1
config *.ue[*].app[*].typename CbrReceiver
config *.ue[*].app[*].localPort 1000
config *.server.app[*].typename CbrSender
config *.server.app[*].PacketSize 1000
config *.server.app[*].sampling_time 0.01s
config *.server.app[*].destAddress "\"ue[\"+string(ancestorIndex(0))+\"]\""
config *.server.app[*].destPort 1000
config *.server.app[*].localPort 3088+ancestorIndex(0)
config *.server.app[*].startTime uniform(0.01s,0.05s)
config output-scalar-file-append false
config network urbandense5gsim.simulations.UrbanDenseNetwork
config sim-time-limit 10s
config warmup-period 1s
config seed-set 0
config output-scalar-file results/Single-UE/0.sca
config output-vector-file results/Single-UE/0.vec
config **.routingRecorder.enabled false
config **.amcType "\"NRAmc\""
config **.targetBler 0.01
config **.blerShift 5
config *.configurator.config "xmldoc(\"./demo.xml\")"
config **.mobility.constraintAreaMaxX 1000m
config **.mobility.constraintAreaMaxY 1000m
config **.mobility.constraintAreaMinX 0m
config **.mobility.constraintAreaMinY 0m
config **.mobility.constraintAreaMinZ 0m
config **.mobility.constraintAreaMaxZ 0m
config **.mobility.initFromDisplayString false

par UrbanDenseNetwork.server.pppg$o[0].channel typename "\"inet.node.ethernet.Eth10G\""
par UrbanDenseNetwork.server.pppg$o[0].channel disabled false
attr mutable ""
par UrbanDenseNetwork.server.pppg$o[0].channel delay 5e-08s
attr mutable ""
attr unit s
par UrbanDenseNetwork.server.pppg$o[0].channel datarate 1e+10bps
attr mutable ""
attr unit bps
par UrbanDenseNetwork.server.pppg$o[0].channel ber 0
attr mutable ""
par UrbanDenseNetwork.server.pppg$o[0].channel per 0
attr mutable ""
par UrbanDenseNetwork.server.pppg$o[0].channel length 10m
attr unit m
par UrbanDenseNetwork.router.pppg$o[0].channel typename "\"inet.node.ethernet.Eth10G\""
par UrbanDenseNetwork.router.pppg$o[0].channel disabled false
attr mutable ""
par UrbanDenseNetwork.router.pppg$o[0].channel delay 5e-08s
attr mutable ""
attr unit s
par UrbanDenseNetwork.router.pppg$o[0].channel datarate 1e+10bps
attr mutable ""
attr unit bps
par UrbanDenseNetwork.router.pppg$o[0].channel ber 0
attr mutable ""
par UrbanDenseNetwork.router.pppg$o[0].channel per 0
attr mutable ""
par UrbanDenseNetwork.router.pppg$o[0].channel length 10m
attr unit m
par UrbanDenseNetwork.router.pppg$o[1].channel typename "\"inet.node.ethernet.Eth10G\""
par UrbanDenseNetwork.router.pppg$o[1].channel disabled false
attr mutable ""
par UrbanDenseNetwork.router.pppg$o[1].channel delay 5e-08s
attr mutable ""
attr unit s
par UrbanDenseNetwork.router.pppg$o[1].channel datarate 1e+10bps
attr mutable ""
attr unit bps
par UrbanDenseNetwork.router.pppg$o[1].channel ber 0
attr mutable ""
par UrbanDenseNetwork.router.pppg$o[1].channel per 0
attr mutable ""
par UrbanDenseNetwork.router.pppg$o[1].channel length 10m
attr unit m
par UrbanDenseNetwork.upf.filterGate$o.channel typename "\"inet.node.ethernet.Eth10G\""
par UrbanDenseNetwork.upf.filterGate$o.channel disabled false
attr mutable ""
par UrbanDenseNetwork.upf.filterGate$o.channel delay 5e-08s
attr mutable ""
attr unit s
par UrbanDenseNetwork.upf.filterGate$o.channel datarate 1e+10bps
attr mutable ""
attr unit bps
par UrbanDenseNetwork.upf.filterGate$o.channel ber 0
attr mutable ""
par UrbanDenseNetwork.upf.filterGate$o.channel per 0
attr mutable ""
par UrbanDenseNetwork.upf.filterGate$o.channel length 10m
attr unit m
par UrbanDenseNetwork.upf.pppg$o[0].channel typename "\"inet.node.ethernet.Eth10G\""
par UrbanDenseNetwork.upf.pppg$o[0].channel disabled false
attr mutable ""
par UrbanDenseNetwork.upf.pppg$o[0].channel delay 5e-08s
attr mutable ""
attr unit s
par UrbanDenseNetwork.upf.pppg$o[0].channel datarate 1e+10bps
attr mutable ""
attr unit bps
par UrbanDenseNetwork.upf.pppg$o[0].channel ber 0
attr mutable ""
par UrbanDenseNetwork.upf.pppg$o[0].channel per 0
attr mutable ""
par UrbanDenseNetwork.upf.pppg$o[0].channel length 10m
attr unit m
par UrbanDenseNetwork.iUpf.pppg$o[0].channel typename "\"inet.node.ethernet.Eth10G\""
par UrbanDenseNetwork.iUpf.pppg$o[0].channel disabled false
attr mutable ""
par UrbanDenseNetwork.iUpf.pppg$o[0].channel delay 5e-08s
attr mutable ""
attr unit s
par UrbanDenseNetwork.iUpf.pppg$o[0].channel datarate 1e+10bps
attr mutable ""
attr unit bps
par UrbanDenseNetwork.iUpf.pppg$o[0].channel ber 0
attr mutable ""
par UrbanDenseNetwork.iUpf.pppg$o[0].channel per 0
attr mutable ""
par UrbanDenseNetwork.iUpf.pppg$o[0].channel length 10m
attr unit m
par UrbanDenseNetwork.iUpf.pppg$o[1].channel typename "\"inet.node.ethernet.Eth10G\""
par UrbanDenseNetwork.iUpf.pppg$o[1].channel disabled false
attr mutable ""
par UrbanDenseNetwork.iUpf.pppg$o[1].channel delay 5e-08s
attr mutable ""
attr unit s
par UrbanDenseNetwork.iUpf.pppg$o[1].channel datarate 1e+10bps
attr mutable ""
attr unit bps
par UrbanDenseNetwork.iUpf.pppg$o[1].channel ber 0
attr mutable ""
par UrbanDenseNetwork.iUpf.pppg$o[1].channel per 0
attr mutable ""
par UrbanDenseNetwork.iUpf.pppg$o[1].channel length 10m
attr unit m
par UrbanDenseNetwork.gnb.ppp$o.channel typename "\"inet.node.ethernet.Eth10G\""
par UrbanDenseNetwork.gnb.ppp$o.channel disabled false
attr mutable ""
par UrbanDenseNetwork.gnb.ppp$o.channel delay 5e-08s
attr mutable ""
attr unit s
par UrbanDenseNetwork.gnb.ppp$o.channel datarate 1e+10bps
attr mutable ""
attr unit bps
par UrbanDenseNetwork.gnb.ppp$o.channel ber 0
attr mutable ""
par UrbanDenseNetwork.gnb.ppp$o.channel per 0
attr mutable ""
par UrbanDenseNetwork.gnb.ppp$o.channel length 10m
attr unit m
par UrbanDenseNetwork.channelControl typename "\"simu5g.world.radio.LteChannelControl\""
par UrbanDenseNetwork.channelControl coreDebug false
par UrbanDenseNetwork.channelControl pMax 20mW
attr unit mW
par UrbanDenseNetwork.channelControl sat -110dBm
attr unit dBm
par UrbanDenseNetwork.channelControl alpha 2
par UrbanDenseNetwork.channelControl carrierFrequency 2.4e+09Hz
attr unit Hz
par UrbanDenseNetwork.channelControl numChannels 1
par UrbanDenseNetwork.channelControl propagationModel "\"FreeSpaceModel\""
attr enum FreeSpaceModel,TwoRayGroundModel,RiceModel,RayleighModel,NakagamiModel,LogNormalShadowingModel
par UrbanDenseNetwork.routingRecorder typename "\"inet.networklayer.ipv4.RoutingTableRecorder\""
par UrbanDenseNetwork.routingRecorder enabled false
par UrbanDenseNetwork.configurator typename "\"inet.networklayer.configurator.ipv4.Ipv4NetworkConfigurator\""
par UrbanDenseNetwork.configurator minLinkWeight 0.001
par UrbanDenseNetwork.configurator configureIsolatedNetworksSeparatly false
par UrbanDenseNetwork.configurator config "<config>...</config> at C:/Users/naray/Downloads/omnetpp-6.0.1-windows-x86_64/omnetpp-6.0.1/Project/UrbanDense5GSim/simulations/\\./demo.xml:1"
par UrbanDenseNetwork.configurator assignAddresses true
par UrbanDenseNetwork.configurator assignUniqueAddresses true
par UrbanDenseNetwork.configurator assignDisjunctSubnetAddresses true
par UrbanDenseNetwork.configurator addStaticRoutes true
par UrbanDenseNetwork.configurator addDefaultRoutes true
par UrbanDenseNetwork.configurator addSubnetRoutes true
par UrbanDenseNetwork.configurator addDirectRoutes true
par UrbanDenseNetwork.configurator optimizeRoutes true
par UrbanDenseNetwork.configurator dumpTopology false
par UrbanDenseNetwork.configurator dumpLinks false
par UrbanDenseNetwork.configurator dumpAddresses false
par UrbanDenseNetwork.configurator dumpRoutes false
par UrbanDenseNetwork.configurator dumpConfig "\"\""
par UrbanDenseNetwork.binder typename "\"simu5g.common.binder.Binder\""
par UrbanDenseNetwork.binder blerShift 5
par UrbanDenseNetwork.binder maxDataRatePerRb 1.16Mbps
attr unit Mbps
par UrbanDenseNetwork.binder printTrafficGeneratorConfig false
par UrbanDenseNetwork.carrierAggregation.componentCarrier[0] typename "\"simu5g.common.carrierAggregation.ComponentCarrier\""
par UrbanDenseNetwork.carrierAggregation.componentCarrier[0] carrierFrequency 2GHz
attr unit GHz
par UrbanDenseNetwork.carrierAggregation.componentCarrier[0] numBands 6
par UrbanDenseNetwork.carrierAggregation.componentCarrier[0] numerologyIndex 0
par UrbanDenseNetwork.carrierAggregation.componentCarrier[0] useTdd false
par UrbanDenseNetwork.carrierAggregation.componentCarrier[0] tddNumSymbolsDl 7
par UrbanDenseNetwork.carrierAggregation.componentCarrier[0] tddNumSymbolsUl 7
par UrbanDenseNetwork.carrierAggregation typename "\"simu5g.common.carrierAggregation.CarrierAggregation\""
par UrbanDenseNetwork.carrierAggregation numComponentCarriers 1
par UrbanDenseNetwork.server.pppg$i[0].channel typename "\"ned.IdealChannel\""
par UrbanDenseNetwork.server.ppp[0].phys$o.channel typename "\"ned.IdealChannel\""
par UrbanDenseNetwork.server.interfaceTable typename "\"inet.networklayer.common.InterfaceTable\""
par UrbanDenseNetwork.server.interfaceTable displayAddresses false
par UrbanDenseNetwork.server.cb typename "\"inet.common.MessageDispatcher\""
par UrbanDenseNetwork.server.cb displayStringTextFormat "\"processed %p pk (%l)\""
par UrbanDenseNetwork.server.cb forwardServiceRegistration true
par UrbanDenseNetwork.server.cb forwardProtocolRegistration true
par UrbanDenseNetwork.server.bl typename "\"inet.common.MessageDispatcher\""
par UrbanDenseNetwork.server.bl displayStringTextFormat "\"processed %p pk (%l)\""
par UrbanDenseNetwork.server.bl forwardServiceRegistration true
par UrbanDenseNetwork.server.bl forwardProtocolRegistration true
par UrbanDenseNetwork.server.li typename "\"inet.common.MessageDispatcher\""
par UrbanDenseNetwork.server.li displayStringTextFormat "\"processed %p pk (%l)\""
par UrbanDenseNetwork.server.li forwardServiceRegistration true
par UrbanDenseNetwork.server.li forwardProtocolRegistration true
par UrbanDenseNetwork.server.lo[0].upperLayerIn.channel typename "\"ned.IdealChannel\""
par UrbanDenseNetwork.server.lo[0].lo.upperLayerOut.channel typename "\"ned.IdealChannel\""
par UrbanDenseNetwork.server.lo[0].lo typename "\"inet.linklayer.loopback.Loopback\""
par UrbanDenseNetwork.server.lo[0].lo interfaceTableModule "\"UrbanDenseNetwork.server.interfaceTable\""
par UrbanDenseNetwork.server.lo[0].lo mtu 4470B
attr unit B
scalar UrbanDenseNetwork.server.lo[0].lo rcvdPkFromHl:count 0
attr interpolationmode none
attr recordingmode count
attr source packetReceivedFromUpper
attr title "packets received from higher layer, count"
scalar UrbanDenseNetwork.server.lo[0].lo rcvdPkFromHl:sum(packetBytes) 0
attr interpolationmode none
attr recordingmode sum(packetBytes)
attr source packetReceivedFromUpper
attr title "packets received from higher layer, sum(packetBytes)"
scalar UrbanDenseNetwork.server.lo[0].lo passedUpPk:count 0
attr interpolationmode none
attr recordingmode count
attr source packetSentToUpper
attr title "packets passed to higher layer, count"
scalar UrbanDenseNetwork.server.lo[0].lo passedUpPk:sum(packetBytes) 0
attr interpolationmode none
attr recordingmode sum(packetBytes)
attr source packetSentToUpper
attr title "packets passed to higher layer, sum(packetBytes)"
par UrbanDenseNetwork.server.lo[0] typename "\"inet.linklayer.loopback.LoopbackInterface\""
par UrbanDenseNetwork.server.lo[0] displayStringTextFormat "\"%a (%i)\\n%m\""
par UrbanDenseNetwork.server.lo[0] recordPcap false
par UrbanDenseNetwork.server.lo[0] numPcapRecorders 0
par UrbanDenseNetwork.server.lo[0] interfaceTableModule "\"UrbanDenseNetwork.server.interfaceTable\""
scalar UrbanDenseNetwork.server.lo[0] packetDropInterfaceDown:count 0
attr interpolationmode none
attr recordingmode count
attr source packetDropReasonIsInterfaceDown(packetDropped)
attr title "packet drops: interface down, count"
scalar UrbanDenseNetwork.server.lo[0] packetDropInterfaceDown:sum(packetBytes) 0
attr interpolationmode none
attr recordingmode sum(packetBytes)
attr source packetDropReasonIsInterfaceDown(packetDropped)
attr title "packet drops: interface down, sum(packetBytes)"
scalar UrbanDenseNetwork.server.lo[0] packetDropNoCarrier:count 0
attr interpolationmode none
attr recordingmode count
attr source packetDropReasonIsNoCarrier(packetDropped)
attr title "packet drops: no carrier, count"
scalar UrbanDenseNetwork.server.lo[0] packetDropNoCarrier:sum(packetBytes) 0
attr interpolationmode none
attr recordingmode sum(packetBytes)
attr source packetDropReasonIsNoCarrier(packetDropped)
attr title "packet drops: no carrier, sum(packetBytes)"
par UrbanDenseNetwork.server.ppp[0].phys$i.channel typename "\"ned.IdealChannel\""
par UrbanDenseNetwork.server.ppp[0].ppp.phys$o.channel typename "\"ned.IdealChannel\""
par UrbanDenseNetwork.server.ppp[0].ppp.upperLayerOut.channel typename "\"ned.IdealChannel\""
par UrbanDenseNetwork.server.ppp[0].upperLayerIn.channel typename "\"ned.IdealChannel\""
par UrbanDenseNetwork.server.ppp[0].queue typename "\"inet.queueing.queue.DropTailQueue\""
par UrbanDenseNetwork.server.ppp[0].queue displayStringTextFormat "\"contains %p pk (%l) pushed %u\\npulled %o removed %r dropped %d\""
par UrbanDenseNetwork.server.ppp[0].queue packetCapacity 10000
par UrbanDenseNetwork.server.ppp[0].queue dataCapacity -1b
attr unit b
par UrbanDenseNetwork.server.ppp[0].queue dropperClass "\"inet::queueing::PacketAtCollectionEndDropper\""
par UrbanDenseNetwork.server.ppp[0].queue comparatorClass "\"\""
par UrbanDenseNetwork.server.ppp[0].queue bufferModule "\"\""
scalar UrbanDenseNetwork.server.ppp[0].queue queueLength:last nan
attr autoWarmupFilter false
attr interpolationmode sample-hold
attr recordingmode last
attr source "warmup(atomic(constant0(packetPushEnded) + count(packetPushStarted) - count(packetPulled) - count(packetRemoved) - count(packetDropped)))"
attr title "queue length, last"
attr unit pk
scalar UrbanDenseNetwork.server.ppp[0].queue queueLength:max nan
attr autoWarmupFilter false
attr interpolationmode sample-hold
attr recordingmode max
attr source "warmup(atomic(constant0(packetPushEnded) + count(packetPushStarted) - count(packetPulled) - count(packetRemoved) - count(packetDropped)))"
attr title "queue length, max"
attr unit pk
scalar UrbanDenseNetwork.server.ppp[0].queue queueLength:timeavg nan
attr autoWarmupFilter false
attr interpolationmode sample-hold
attr recordingmode timeavg
attr source "warmup(atomic(constant0(packetPushEnded) + count(packetPushStarted) - count(packetPulled) - count(packetRemoved) - count(packetDropped)))"
attr title "queue length, timeavg"
attr unit pk
scalar UrbanDenseNetwork.server.ppp[0].queue queueBitLength:last nan
attr autoWarmupFilter false
attr interpolationmode sample-hold
attr recordingmode last
attr source "warmup(atomic(constant0(packetPushEnded) + sum(packetLength(packetPushStarted)) - sum(packetLength(packetPulled)) - sum(packetLength(packetRemoved)) - sum(packetLength(packetDropped))))"
attr title "queue bit length, last"
attr unit b
scalar UrbanDenseNetwork.server.ppp[0].queue queueBitLength:max nan
attr autoWarmupFilter false
attr interpolationmode sample-hold
attr recordingmode max
attr source "warmup(atomic(constant0(packetPushEnded) + sum(packetLength(packetPushStarted)) - sum(packetLength(packetPulled)) - sum(packetLength(packetRemoved)) - sum(packetLength(packetDropped))))"
attr title "queue bit length, max"
attr unit b
scalar UrbanDenseNetwork.server.ppp[0].queue queueBitLength:timeavg nan
attr autoWarmupFilter false
attr interpolationmode sample-hold
attr recordingmode timeavg
attr source "warmup(atomic(constant0(packetPushEnded) + sum(packetLength(packetPushStarted)) - sum(packetLength(packetPulled)) - sum(packetLength(packetRemoved)) - sum(packetLength(packetDropped))))"
attr title "queue bit length, timeavg"
attr unit b
statistic UrbanDenseNetwork.server.ppp[0].queue queueingTime:histogram
field count 0
field mean nan
field stddev nan
field min nan
field max nan
field sum 0
field sqrsum 0
attr interpolationmode none
attr recordingmode histogram
attr source queueingTime(packetPulled)
attr title "queueing times"
attr unit s
bin	-inf	0
bin	0	0
bin	1	0
scalar UrbanDenseNetwork.server.ppp[0].queue outgoingPackets:count 0
attr recordingmode count
attr source packetPulled
attr title "outgoing packets, count"
attr unit pk
scalar UrbanDenseNetwork.server.ppp[0].queue outgoingPacketLengths:sum 0
attr interpolationmode none
attr recordingmode sum
attr source packetLength(packetPulled)
attr title "outgoing packet lengths, sum"
attr unit b
statistic UrbanDenseNetwork.server.ppp[0].queue outgoingPacketLengths:histogram
field count 0
field mean nan
field stddev nan
field min nan
field max nan
field sum 0
field sqrsum 0
attr interpolationmode none
attr recordingmode histogram
attr source packetLength(packetPulled)
attr title "outgoing packet lengths"
attr unit b
bin	-inf	0
bin	0	0
bin	1	0
statistic UrbanDenseNetwork.server.ppp[0].queue flowQueueingTime:histogram
field count 0
field mean nan
field stddev nan
field min nan
field max nan
field sum 0
field sqrsum 0
attr interpolationmode none
attr recordingmode histogram
attr source queueingTime(demuxFlow(packetPulled))
attr title "flow queueing times"
attr unit s
bin	-inf	0
bin	0	0
bin	1	0
scalar UrbanDenseNetwork.server.ppp[0].queue incomingPackets:count 0
attr recordingmode count
attr source packetPushStarted
attr title "incoming packets, count"
attr unit pk
scalar UrbanDenseNetwork.server.ppp[0].queue incomingPacketLengths:sum 0
attr interpolationmode none
attr recordingmode sum
attr source packetLength(packetPushStarted)
attr title "incoming packet lengths, sum"
attr unit b
statistic UrbanDenseNetwork.server.ppp[0].queue incomingPacketLengths:histogram
field count 0
field mean nan
field stddev nan
field min nan
field max nan
field sum 0
field sqrsum 0
attr interpolationmode none
attr recordingmode histogram
attr source packetLength(packetPushStarted)
attr title "incoming packet lengths"
attr unit b
bin	-inf	0
bin	0	0
bin	1	0
scalar UrbanDenseNetwork.server.ppp[0].queue droppedPacketsQueueOverflow:count 0
attr interpolationmode none
attr recordingmode count
attr source packetDropReasonIsQueueOverflow(packetDropped)
attr title "dropped packets: queue overflow, count"
attr unit pk
scalar UrbanDenseNetwork.server.ppp[0].queue droppedPacketLengthsQueueOverflow:sum 0
attr interpolationmode none
attr recordingmode sum
attr source packetLength(packetDropReasonIsQueueOverflow(packetDropped))
attr title "dropped packet lengths: queue overflow, sum"
attr unit b
par UrbanDenseNetwork.server.ppp[0].ppp typename "\"inet.linklayer.ppp.Ppp\""
par UrbanDenseNetwork.server.ppp[0].ppp interfaceTableModule "\"UrbanDenseNetwork.server.interfaceTable\""
par UrbanDenseNetwork.server.ppp[0].ppp displayStringTextFormat "\"rate: %b\\nsent: %s, rcvd: %r\\nqueue: %q, drop: %d\""
par UrbanDenseNetwork.server.ppp[0].ppp sendRawBytes false
par UrbanDenseNetwork.server.ppp[0].ppp mtu 4470B
attr unit B
par UrbanDenseNetwork.server.ppp[0].ppp stopOperationExtraTime -1s
attr unit s
par UrbanDenseNetwork.server.ppp[0].ppp stopOperationTimeout 2s
attr unit s
scalar UrbanDenseNetwork.server.ppp[0].ppp txPk:count 0
attr interpolationmode none
attr recordingmode count
attr source packetSentToLower
attr title "packets transmitted, count"
scalar UrbanDenseNetwork.server.ppp[0].ppp txPk:sum(packetBytes) 0
attr interpolationmode none
attr recordingmode sum(packetBytes)
attr source packetSentToLower
attr title "packets transmitted, sum(packetBytes)"
scalar UrbanDenseNetwork.server.ppp[0].ppp rcvdPkFromHl:count 0
attr interpolationmode none
attr recordingmode count
attr source packetReceivedFromUpper
attr title "packets received from higher layer, count"
scalar UrbanDenseNetwork.server.ppp[0].ppp rcvdPkFromHl:sum(packetBytes) 0
attr interpolationmode none
attr recordingmode sum(packetBytes)
attr source packetReceivedFromUpper
attr title "packets received from higher layer, sum(packetBytes)"
scalar UrbanDenseNetwork.server.ppp[0].ppp passedUpPk:count 0
attr interpolationmode none
attr recordingmode count
attr source packetSentToUpper
attr title "packets passed to higher layer, count"
scalar UrbanDenseNetwork.server.ppp[0].ppp passedUpPk:sum(packetBytes) 0
attr interpolationmode none
attr recordingmode sum(packetBytes)
attr source packetSentToUpper
attr title "packets passed to higher layer, sum(packetBytes)"
scalar UrbanDenseNetwork.server.ppp[0].ppp packetDropIncorrectlyReceived:count 0
attr interpolationmode none
attr recordingmode count
attr source packetDropReasonIsIncorrectlyReceived(packetDropped)
attr title "packet drop: incorrectly received, count"
scalar UrbanDenseNetwork.server.ppp[0].ppp packetDropIncorrectlyReceived:sum(packetBytes) 0
attr interpolationmode none
attr recordingmode sum(packetBytes)
attr source packetDropReasonIsIncorrectlyReceived(packetDropped)
attr title "packet drop: incorrectly received, sum(packetBytes)"
scalar UrbanDenseNetwork.server.ppp[0].ppp packetDropInterfaceDown:count 0
attr interpolationmode none
attr recordingmode count
attr source packetDropReasonIsInterfaceDown(packetDropped)
attr title "packet drop: interface down, count"
scalar UrbanDenseNetwork.server.ppp[0].ppp packetDropInterfaceDown:sum(packetBytes) 0
attr interpolationmode none
attr recordingmode sum(packetBytes)
attr source packetDropReasonIsInterfaceDown(packetDropped)
attr title "packet drop: interface down, sum(packetBytes)"
scalar UrbanDenseNetwork.server.ppp[0].ppp rxPkOk:count 0
attr interpolationmode none
attr recordingmode count
attr source rxPkOk
attr title "packets received OK, count"
scalar UrbanDenseNetwork.server.ppp[0].ppp rxPkOk:sum(packetBytes) 0
attr interpolationmode none
attr recordingmode sum(packetBytes)
attr source rxPkOk
attr title "packets received OK, sum(packetBytes)"
scalar UrbanDenseNetwork.server.ppp[0].ppp transmissionState:timeavg nan
attr interpolationmode sample-hold
attr recordingmode timeavg
attr source transmissionStateChanged
attr title "tx state, timeavg"
par UrbanDenseNetwork.server.ppp[0] typename "\"inet.linklayer.ppp.PppInterface\""
par UrbanDenseNetwork.server.ppp[0] displayStringTextFormat "\"%a (%i)\\n%m\""
par UrbanDenseNetwork.server.ppp[0] recordPcap false
par UrbanDenseNetwork.server.ppp[0] numPcapRecorders 0
par UrbanDenseNetwork.server.ppp[0] interfaceTableModule "\"UrbanDenseNetwork.server.interfaceTable\""
scalar UrbanDenseNetwork.server.ppp[0] packetDropInterfaceDown:count 0
attr interpolationmode none
attr recordingmode count
attr source packetDropReasonIsInterfaceDown(packetDropped)
attr title "packet drops: interface down, count"
scalar UrbanDenseNetwork.server.ppp[0] packetDropInterfaceDown:sum(packetBytes) 0
attr interpolationmode none
attr recordingmode sum(packetBytes)
attr source packetDropReasonIsInterfaceDown(packetDropped)
attr title "packet drops: interface down, sum(packetBytes)"
scalar UrbanDenseNetwork.server.ppp[0] packetDropNoCarrier:count 0
attr interpolationmode none
attr recordingmode count
attr source packetDropReasonIsNoCarrier(packetDropped)
attr title "packet drops: no carrier, count"
scalar UrbanDenseNetwork.server.ppp[0] packetDropNoCarrier:sum(packetBytes) 0
attr interpolationmode none
attr recordingmode sum(packetBytes)
attr source packetDropReasonIsNoCarrier(packetDropped)
attr title "packet drops: no carrier, sum(packetBytes)"
par UrbanDenseNetwork.server.ipv4.transportIn.channel typename "\"ned.IdealChannel\""
par UrbanDenseNetwork.server.ipv4.up.out[0].channel typename "\"ned.IdealChannel\""
par UrbanDenseNetwork.server.ipv4.lp.out[2].channel typename "\"ned.IdealChannel\""
par UrbanDenseNetwork.server.ipv4.ifIn.channel typename "\"ned.IdealChannel\""
par UrbanDenseNetwork.server.ipv4.configurator typename "\"inet.networklayer.configurator.ipv4.Ipv4NodeConfigurator\""
par UrbanDenseNetwork.server.ipv4.configurator interfaceTableModule "\"UrbanDenseNetwork.server.interfaceTable\""
par UrbanDenseNetwork.server.ipv4.configurator routingTableModule "\"UrbanDenseNetwork.server.ipv4.routingTable\""
par UrbanDenseNetwork.server.ipv4.configurator networkConfiguratorModule "\"configurator\""
par UrbanDenseNetwork.server.ipv4.configurator configureRoutingTable true
par UrbanDenseNetwork.server.ipv4.routingTable typename "\"inet.networklayer.ipv4.Ipv4RoutingTable\""
par UrbanDenseNetwork.server.ipv4.routingTable interfaceTableModule "\"UrbanDenseNetwork.server.interfaceTable\""
par UrbanDenseNetwork.server.ipv4.routingTable routerId "\"auto\""
par UrbanDenseNetwork.server.ipv4.routingTable netmaskRoutes "\"*\""
par UrbanDenseNetwork.server.ipv4.routingTable forwarding false
par UrbanDenseNetwork.server.ipv4.routingTable multicastForwarding false
par UrbanDenseNetwork.server.ipv4.routingTable useAdminDist false
par UrbanDenseNetwork.server.ipv4.routingTable routingFile "\"\""
par UrbanDenseNetwork.server.ipv4.natTable typename "\"inet.networklayer.ipv4.Ipv4NatTable\""
par UrbanDenseNetwork.server.ipv4.natTable networkProtocolModule "\"^.ip\""
par UrbanDenseNetwork.server.ipv4.natTable config "<config/> at content:1"
par UrbanDenseNetwork.server.ipv4.up typename "\"inet.common.MessageDispatcher\""
par UrbanDenseNetwork.server.ipv4.up displayStringTextFormat "\"processed %p pk (%l)\""
par UrbanDenseNetwork.server.ipv4.up forwardServiceRegistration true
par UrbanDenseNetwork.server.ipv4.up forwardProtocolRegistration true
par UrbanDenseNetwork.server.ipv4.igmp typename "\"inet.networklayer.ipv4.Igmpv2\""
par UrbanDenseNetwork.server.ipv4.igmp interfaceTableModule "\"UrbanDenseNetwork.server.interfaceTable\""
par UrbanDenseNetwork.server.ipv4.igmp routingTableModule "\"UrbanDenseNetwork.server.ipv4.routingTable\""
par UrbanDenseNetwork.server.ipv4.igmp crcMode "\"declared\""
attr enum declared,computed
par UrbanDenseNetwork.server.ipv4.igmp enabled true
par UrbanDenseNetwork.server.ipv4.igmp robustnessVariable 2
par UrbanDenseNetwork.server.ipv4.igmp queryInterval 125s
attr unit s
par UrbanDenseNetwork.server.ipv4.igmp queryResponseInterval 10s
attr unit s
par UrbanDenseNetwork.server.ipv4.igmp groupMembershipInterval 260s
attr unit s
par UrbanDenseNetwork.server.ipv4.igmp otherQuerierPresentInterval 255s
attr unit s
par UrbanDenseNetwork.server.ipv4.igmp startupQueryInterval 31.25s
attr unit s
par UrbanDenseNetwork.server.ipv4.igmp startupQueryCount 2
par UrbanDenseNetwork.server.ipv4.igmp lastMemberQueryInterval 1s
attr unit s
par UrbanDenseNetwork.server.ipv4.igmp lastMemberQueryCount 2
par UrbanDenseNetwork.server.ipv4.igmp unsolicitedReportInterval 10s
attr unit s
par UrbanDenseNetwork.server.ipv4.icmp typename "\"inet.networklayer.ipv4.Icmp\""
par UrbanDenseNetwork.server.ipv4.icmp interfaceTableModule "\"UrbanDenseNetwork.server.interfaceTable\""
par UrbanDenseNetwork.server.ipv4.icmp routingTableModule "\"UrbanDenseNetwork.server.ipv4.routingTable\""
par UrbanDenseNetwork.server.ipv4.icmp crcMode "\"declared\""
attr enum declared,computed
attr mutable ""
par UrbanDenseNetwork.server.ipv4.icmp quoteLength 8B
attr mutable ""
attr unit B
par UrbanDenseNetwork.server.ipv4.mp typename "\"inet.common.MessageDispatcher\""
par UrbanDenseNetwork.server.ipv4.mp displayStringTextFormat "\"processed %p pk (%l)\""
par UrbanDenseNetwork.server.ipv4.mp forwardServiceRegistration true
par UrbanDenseNetwork.server.ipv4.mp forwardProtocolRegistration true
par UrbanDenseNetwork.server.ipv4.ip typename "\"inet.networklayer.ipv4.Ipv4\""
par UrbanDenseNetwork.server.ipv4.ip interfaceTableModule "\"UrbanDenseNetwork.server.interfaceTable\""
par UrbanDenseNetwork.server.ipv4.ip routingTableModule "\"UrbanDenseNetwork.server.ipv4.routingTable\""
par UrbanDenseNetwork.server.ipv4.ip arpModule "\"UrbanDenseNetwork.server.ipv4.arp\""
par UrbanDenseNetwork.server.ipv4.ip icmpModule "\"UrbanDenseNetwork.server.ipv4.icmp\""
par UrbanDenseNetwork.server.ipv4.ip crcMode "\"declared\""
attr enum declared,computed
par UrbanDenseNetwork.server.ipv4.ip timeToLive 32
par UrbanDenseNetwork.server.ipv4.ip multicastTimeToLive 32
par UrbanDenseNetwork.server.ipv4.ip fragmentTimeout 60s
attr unit s
par UrbanDenseNetwork.server.ipv4.ip limitedBroadcast false
par UrbanDenseNetwork.server.ipv4.ip directBroadcastInterfaces "\"\""
scalar UrbanDenseNetwork.server.ipv4.ip packetDropAddressResolutionFailed:count 0
attr interpolationmode none
attr recordingmode count
attr source packetDropReasonIsAddressResolutionFailed(packetDropped)
attr title "packet drop: address resolution failed, count"
scalar UrbanDenseNetwork.server.ipv4.ip packetDropAddressResolutionFailed:sum(packetBytes) 0
attr interpolationmode none
attr recordingmode sum(packetBytes)
attr source packetDropReasonIsAddressResolutionFailed(packetDropped)
attr title "packet drop: address resolution failed, sum(packetBytes)"
scalar UrbanDenseNetwork.server.ipv4.ip packetDropHopLimitReached:count 0
attr interpolationmode none
attr recordingmode count
attr source packetDropReasonIsHopLimitReached(packetDropped)
attr title "packet drop: hop limit reached, count"
scalar UrbanDenseNetwork.server.ipv4.ip packetDropHopLimitReached:sum(packetBytes) 0
attr interpolationmode none
attr recordingmode sum(packetBytes)
attr source packetDropReasonIsHopLimitReached(packetDropped)
attr title "packet drop: hop limit reached, sum(packetBytes)"
scalar UrbanDenseNetwork.server.ipv4.ip packetDropForwardingDisabled:count 0
attr interpolationmode none
attr recordingmode count
attr source packetDropReasonIsForwardingDisabled(packetDropped)
attr title "packet drop: forwarding disabled, count"
scalar UrbanDenseNetwork.server.ipv4.ip packetDropForwardingDisabled:sum(packetBytes) 0
attr interpolationmode none
attr recordingmode sum(packetBytes)
attr source packetDropReasonIsForwardingDisabled(packetDropped)
attr title "packet drop: forwarding disabled, sum(packetBytes)"
scalar UrbanDenseNetwork.server.ipv4.ip packetDropNoInterfaceFound:count 0
attr interpolationmode none
attr recordingmode count
attr source packetDropReasonIsNoInterfaceFound(packetDropped)
attr title "packet drop: no interface found, count"
scalar UrbanDenseNetwork.server.ipv4.ip packetDropNoInterfaceFound:sum(packetBytes) 0
attr interpolationmode none
attr recordingmode sum(packetBytes)
attr source packetDropReasonIsNoInterfaceFound(packetDropped)
attr title "packet drop: no interface found, sum(packetBytes)"
scalar UrbanDenseNetwork.server.ipv4.ip packetDropNoRouteFound:count 0
attr interpolationmode none
attr recordingmode count
attr source packetDropReasonIsNoRouteFound(packetDropped)
attr title "packet drop: no route found, count"
scalar UrbanDenseNetwork.server.ipv4.ip packetDropNoRouteFound:sum(packetBytes) 0
attr interpolationmode none
attr recordingmode sum(packetBytes)
attr source packetDropReasonIsNoRouteFound(packetDropped)
attr title "packet drop: no route found, sum(packetBytes)"
scalar UrbanDenseNetwork.server.ipv4.ip packetDropUndefined:count 0
attr interpolationmode none
attr recordingmode count
attr source packetDropReasonIsUndefined(packetDropped)
attr title "packet drop: undefined, count"
scalar UrbanDenseNetwork.server.ipv4.ip packetDropUndefined:sum(packetBytes) 0
attr interpolationmode none
attr recordingmode sum(packetBytes)
attr source packetDropReasonIsUndefined(packetDropped)
attr title "packet drop: undefined, sum(packetBytes)"
par UrbanDenseNetwork.server.ipv4.arp typename "\"inet.networklayer.arp.ipv4.Arp\""
par UrbanDenseNetwork.server.ipv4.arp interfaceTableModule "\"UrbanDenseNetwork.server.interfaceTable\""
par UrbanDenseNetwork.server.ipv4.arp routingTableModule "\"UrbanDenseNetwork.server.ipv4.routingTable\""
par UrbanDenseNetwork.server.ipv4.arp retryTimeout 1s
attr unit s
par UrbanDenseNetwork.server.ipv4.arp retryCount 3
par UrbanDenseNetwork.server.ipv4.arp cacheTimeout 120s
attr unit s
par UrbanDenseNetwork.server.ipv4.arp proxyArpInterfaces "\"\""
scalar UrbanDenseNetwork.server.ipv4.arp arpReplySent:count 0
attr recordingmode count
attr source arpReplySent
attr title "ARP replies sent, count"
scalar UrbanDenseNetwork.server.ipv4.arp arpReplySent:sum(packetBytes) 0
attr recordingmode sum(packetBytes)
attr source arpReplySent
attr title "ARP replies sent, sum(packetBytes)"
scalar UrbanDenseNetwork.server.ipv4.arp arpRequestSent:count 0
attr recordingmode count
attr source arpRequestSent
attr title "ARP request sent, count"
scalar UrbanDenseNetwork.server.ipv4.arp arpRequestSent:sum(packetBytes) 0
attr recordingmode sum(packetBytes)
attr source arpRequestSent
attr title "ARP request sent, sum(packetBytes)"
scalar UrbanDenseNetwork.server.ipv4.arp arpResolutionFailed:count 0
attr recordingmode count
attr title "ARP failed resolutions, count"
scalar UrbanDenseNetwork.server.ipv4.arp arpResolutionCompleted:count 0
attr recordingmode count
attr title "ARP completed resolutions, count"
scalar UrbanDenseNetwork.server.ipv4.arp arpResolutionInitiated:count 0
attr recordingmode count
attr title "ARP initiated resolutions, count"
par UrbanDenseNetwork.server.ipv4.lp typename "\"inet.common.MessageDispatcher\""
par UrbanDenseNetwork.server.ipv4.lp displayStringTextFormat "\"processed %p pk (%l)\""
par UrbanDenseNetwork.server.ipv4.lp forwardServiceRegistration true
par UrbanDenseNetwork.server.ipv4.lp forwardProtocolRegistration true
par UrbanDenseNetwork.server.ipv4 typename "\"inet.networklayer.ipv4.Ipv4NetworkLayer\""
par UrbanDenseNetwork.server.ipv4 forwarding false
par UrbanDenseNetwork.server.ipv4 multicastForwarding false
par UrbanDenseNetwork.server.ipv4 interfaceTableModule "\"UrbanDenseNetwork.server.interfaceTable\""
par UrbanDenseNetwork.server.ipv4 displayStringTextFormat "\"%i\""
par UrbanDenseNetwork.server.nl typename "\"inet.common.MessageDispatcher\""
par UrbanDenseNetwork.server.nl displayStringTextFormat "\"processed %p pk (%l)\""
par UrbanDenseNetwork.server.nl forwardServiceRegistration true
par UrbanDenseNetwork.server.nl forwardProtocolRegistration true
par UrbanDenseNetwork.server.udp typename "\"inet.transportlayer.udp.Udp\""
par UrbanDenseNetwork.server.udp interfaceTableModule "\"UrbanDenseNetwork.server.interfaceTable\""
par UrbanDenseNetwork.server.udp icmpModule "\"^.ipv4.icmp\""
par UrbanDenseNetwork.server.udp icmpv6Module "\"^.ipv6.icmpv6\""
par UrbanDenseNetwork.server.udp crcMode "\"declared\""
attr enum disabled,declared,computed
par UrbanDenseNetwork.server.udp defaultMulticastLoop true
scalar UrbanDenseNetwork.server.udp packetReceived:count 0
attr interpolationmode none
attr recordingmode count
attr source packetReceived
attr title "packets received, count"
scalar UrbanDenseNetwork.server.udp packetReceived:sum(packetBytes) 0
attr interpolationmode none
attr recordingmode sum(packetBytes)
attr source packetReceived
attr title "packets received, sum(packetBytes)"
scalar UrbanDenseNetwork.server.udp packetSent:count 0
attr interpolationmode none
attr recordingmode count
attr source packetSent
attr title "packets sent, count"
scalar UrbanDenseNetwork.server.udp packetSent:sum(packetBytes) 0
attr interpolationmode none
attr recordingmode sum(packetBytes)
attr source packetSent
attr title "packets sent, sum(packetBytes)"
scalar UrbanDenseNetwork.server.udp passedUpPk:count 0
attr interpolationmode none
attr recordingmode count
attr source packetSentToUpper
attr title "packets passed up, count"
scalar UrbanDenseNetwork.server.udp droppedPkWrongPort:count 0
attr interpolationmode none
attr recordingmode count
attr source packetDropReasonIsNoPortFound(packetDropped)
attr title "packets dropped (wrong port), count"
scalar UrbanDenseNetwork.server.udp droppedPkBadChecksum:count 0
attr interpolationmode none
attr recordingmode count
attr source packetDropReasonIsIncorrectlyReceived(packetDropped)
attr title "packets dropped (checksum error), count"
par UrbanDenseNetwork.server.tcp typename "\"inet.transportlayer.tcp.Tcp\""
par UrbanDenseNetwork.server.tcp crcMode "\"declared\""
attr enum declared,computed
par UrbanDenseNetwork.server.tcp advertisedWindow 7504
par UrbanDenseNetwork.server.tcp delayedAcksEnabled false
par UrbanDenseNetwork.server.tcp nagleEnabled true
par UrbanDenseNetwork.server.tcp limitedTransmitEnabled false
par UrbanDenseNetwork.server.tcp increasedIWEnabled false
par UrbanDenseNetwork.server.tcp sackSupport false
par UrbanDenseNetwork.server.tcp windowScalingSupport false
par UrbanDenseNetwork.server.tcp windowScalingFactor -1
par UrbanDenseNetwork.server.tcp timestampSupport false
par UrbanDenseNetwork.server.tcp mss 536
par UrbanDenseNetwork.server.tcp msl 120s
attr unit s
par UrbanDenseNetwork.server.tcp tcpAlgorithmClass "\"TcpReno\""
attr enum TcpVegas,TcpWestwood,TcpNewReno,TcpReno,TcpTahoe,TcpNoCongestionControl
par UrbanDenseNetwork.server.tcp useDataNotification false
par UrbanDenseNetwork.server.tcp dupthresh 3
par UrbanDenseNetwork.server.tcp initialSsthresh 4294967295
par UrbanDenseNetwork.server.tcp stopOperationExtraTime 0s
attr unit s
par UrbanDenseNetwork.server.tcp stopOperationTimeout 2s
attr unit s
par UrbanDenseNetwork.server.tcp ecnWillingness false
par UrbanDenseNetwork.server.tcp dctcpGamma 0.0625
par UrbanDenseNetwork.server.tn typename "\"inet.common.MessageDispatcher\""
par UrbanDenseNetwork.server.tn displayStringTextFormat "\"processed %p pk (%l)\""
par UrbanDenseNetwork.server.tn forwardServiceRegistration true
par UrbanDenseNetwork.server.tn forwardProtocolRegistration true
par UrbanDenseNetwork.server.app[0] typename "\"simu5g.apps.cbr.CbrSender\""
par UrbanDenseNetwork.server.app[0] localPort 3088
par UrbanDenseNetwork.server.app[0] destPort 1000
par UrbanDenseNetwork.server.app[0] destAddress "\"ue[0]\""
par UrbanDenseNetwork.server.app[0] PacketSize 1000
par UrbanDenseNetwork.server.app[0] sampling_time 0.01s
attr unit s
par UrbanDenseNetwork.server.app[0] startTime 0.0424607s
attr unit s
par UrbanDenseNetwork.server.app[0] finishTime 0s
attr unit s
par UrbanDenseNetwork.server.app[0] tos -1
scalar UrbanDenseNetwork.server.app[0] cbrGeneratedBytes:timeavg nan
attr recordingmode timeavg
attr source cbrGeneratedBytesSignal
attr title "Bytes generated by the application, timeavg"
attr unit Bps
scalar UrbanDenseNetwork.server.app[0] cbrGeneratedBytes:mean nan
attr recordingmode mean
attr source cbrGeneratedBytesSignal
attr title "Bytes generated by the application, mean"
attr unit Bps
scalar UrbanDenseNetwork.server.app[0] cbrGeneratedBytes:last(sumPerDuration) nan
attr recordingmode last(sumPerDuration)
attr source cbrGeneratedBytesSignal
attr title "Bytes generated by the application, last(sumPerDuration)"
attr unit Bps
scalar UrbanDenseNetwork.server.app[0] cbrGeneratedBytes:sum 0
attr recordingmode sum
attr source cbrGeneratedBytesSignal
attr title "Bytes generated by the application, sum"
attr unit Bps
scalar UrbanDenseNetwork.server.app[0] cbrGeneratedThroughtput:timeavg nan
attr recordingmode timeavg
attr source cbrGeneratedThroughtputSignal
attr title "Throughput generated by the application, timeavg"
attr unit Bps
scalar UrbanDenseNetwork.server.app[0] cbrGeneratedThroughtput:mean nan
attr recordingmode mean
attr source cbrGeneratedThroughtputSignal
attr title "Throughput generated by the application, mean"
attr unit Bps
scalar UrbanDenseNetwork.server.app[0] cbrGeneratedThroughtput:last(sumPerDuration) nan
attr recordingmode last(sumPerDuration)
attr source cbrGeneratedThroughtputSignal
attr title "Throughput generated by the application, last(sumPerDuration)"
attr unit Bps
scalar UrbanDenseNetwork.server.app[0] cbrGeneratedThroughtput:sum 0
attr recordingmode sum
attr source cbrGeneratedThroughtputSignal
attr title "Throughput generated by the application, sum"
attr unit Bps
par UrbanDenseNetwork.server.at typename "\"inet.common.MessageDispatcher\""
par UrbanDenseNetwork.server.at displayStringTextFormat "\"processed %p pk (%l)\""
par UrbanDenseNetwork.server.at forwardServiceRegistration true
par UrbanDenseNetwork.server.at forwardProtocolRegistration true
par UrbanDenseNetwork.server typename "\"inet.node.inet.StandardHost\""
par UrbanDenseNetwork.server hasStatus false
par UrbanDenseNetwork.server osgModel "\"\""
par UrbanDenseNetwork.server osgModelColor "\"\""
par UrbanDenseNetwork.server canvasImage "\"\""
par UrbanDenseNetwork.server canvasImageColor "\"\""
par UrbanDenseNetwork.server recordPcap false
par UrbanDenseNetwork.server numPcapRecorders 0
par UrbanDenseNetwork.server numLoInterfaces 1
par UrbanDenseNetwork.server numWlanInterfaces 0
par UrbanDenseNetwork.server numEthInterfaces 0
par UrbanDenseNetwork.server numPppInterfaces 0
par UrbanDenseNetwork.server numTunInterfaces 0
par UrbanDenseNetwork.server numVirtInterfaces 0
par UrbanDenseNetwork.server fcsMode "\"declared\""
attr enum declared,computed
par UrbanDenseNetwork.server hasIpv4 true
par UrbanDenseNetwork.server hasIpv6 false
par UrbanDenseNetwork.server hasGn false
par UrbanDenseNetwork.server forwarding false
par UrbanDenseNetwork.server multicastForwarding false
par UrbanDenseNetwork.server hasUdp true
par UrbanDenseNetwork.server hasTcp true
par UrbanDenseNetwork.server hasSctp false
par UrbanDenseNetwork.server numApps 1
par UrbanDenseNetwork.router.pppg$i[0].channel typename "\"ned.IdealChannel\""
par UrbanDenseNetwork.router.ppp[0].phys$o.channel typename "\"ned.IdealChannel\""
par UrbanDenseNetwork.router.pppg$i[1].channel typename "\"ned.IdealChannel\""
par UrbanDenseNetwork.router.ppp[1].phys$o.channel typename "\"ned.IdealChannel\""
par UrbanDenseNetwork.router.interfaceTable typename "\"inet.networklayer.common.InterfaceTable\""
par UrbanDenseNetwork.router.interfaceTable displayAddresses false
par UrbanDenseNetwork.router.cb typename "\"inet.common.MessageDispatcher\""
par UrbanDenseNetwork.router.cb displayStringTextFormat "\"processed %p pk (%l)\""
par UrbanDenseNetwork.router.cb forwardServiceRegistration true
par UrbanDenseNetwork.router.cb forwardProtocolRegistration true
par UrbanDenseNetwork.router.bl typename "\"inet.common.MessageDispatcher\""
par UrbanDenseNetwork.router.bl displayStringTextFormat "\"processed %p pk (%l)\""
par UrbanDenseNetwork.router.bl forwardServiceRegistration true
par UrbanDenseNetwork.router.bl forwardProtocolRegistration true
par UrbanDenseNetwork.router.li typename "\"inet.common.MessageDispatcher\""
par UrbanDenseNetwork.router.li displayStringTextFormat "\"processed %p pk (%l)\""
par UrbanDenseNetwork.router.li forwardServiceRegistration true
par UrbanDenseNetwork.router.li forwardProtocolRegistration true
par UrbanDenseNetwork.router.lo[0].upperLayerIn.channel typename "\"ned.IdealChannel\""
par UrbanDenseNetwork.router.lo[0].lo.upperLayerOut.channel typename "\"ned.IdealChannel\""
par UrbanDenseNetwork.router.lo[0].lo typename "\"inet.linklayer.loopback.Loopback\""
par UrbanDenseNetwork.router.lo[0].lo interfaceTableModule "\"UrbanDenseNetwork.router.interfaceTable\""
par UrbanDenseNetwork.router.lo[0].lo mtu 4470B
attr unit B
scalar UrbanDenseNetwork.router.lo[0].lo rcvdPkFromHl:count 0
attr interpolationmode none
attr recordingmode count
attr source packetReceivedFromUpper
attr title "packets received from higher layer, count"
scalar UrbanDenseNetwork.router.lo[0].lo rcvdPkFromHl:sum(packetBytes) 0
attr interpolationmode none
attr recordingmode sum(packetBytes)
attr source packetReceivedFromUpper
attr title "packets received from higher layer, sum(packetBytes)"
scalar UrbanDenseNetwork.router.lo[0].lo passedUpPk:count 0
attr interpolationmode none
attr recordingmode count
attr source packetSentToUpper
attr title "packets passed to higher layer, count"
scalar UrbanDenseNetwork.router.lo[0].lo passedUpPk:sum(packetBytes) 0
attr interpolationmode none
attr recordingmode sum(packetBytes)
attr source packetSentToUpper
attr title "packets passed to higher layer, sum(packetBytes)"
par UrbanDenseNetwork.router.lo[0] typename "\"inet.linklayer.loopback.LoopbackInterface\""
par UrbanDenseNetwork.router.lo[0] displayStringTextFormat "\"%a (%i)\\n%m\""
par UrbanDenseNetwork.router.lo[0] recordPcap false
par UrbanDenseNetwork.router.lo[0] numPcapRecorders 0
par UrbanDenseNetwork.router.lo[0] interfaceTableModule "\"UrbanDenseNetwork.router.interfaceTable\""
scalar UrbanDenseNetwork.router.lo[0] packetDropInterfaceDown:count 0
attr interpolationmode none
attr recordingmode count
attr source packetDropReasonIsInterfaceDown(packetDropped)
attr title "packet drops: interface down, count"
scalar UrbanDenseNetwork.router.lo[0] packetDropInterfaceDown:sum(packetBytes) 0
attr interpolationmode none
attr recordingmode sum(packetBytes)
attr source packetDropReasonIsInterfaceDown(packetDropped)
attr title "packet drops: interface down, sum(packetBytes)"
scalar UrbanDenseNetwork.router.lo[0] packetDropNoCarrier:count 0
attr interpolationmode none
attr recordingmode count
attr source packetDropReasonIsNoCarrier(packetDropped)
attr title "packet drops: no carrier, count"
scalar UrbanDenseNetwork.router.lo[0] packetDropNoCarrier:sum(packetBytes) 0
attr interpolationmode none
attr recordingmode sum(packetBytes)
attr source packetDropReasonIsNoCarrier(packetDropped)
attr title "packet drops: no carrier, sum(packetBytes)"
par UrbanDenseNetwork.router.ppp[0].phys$i.channel typename "\"ned.IdealChannel\""
par UrbanDenseNetwork.router.ppp[0].ppp.phys$o.channel typename "\"ned.IdealChannel\""
par UrbanDenseNetwork.router.ppp[0].ppp.upperLayerOut.channel typename "\"ned.IdealChannel\""
par UrbanDenseNetwork.router.ppp[0].upperLayerIn.channel typename "\"ned.IdealChannel\""
par UrbanDenseNetwork.router.ppp[0].queue typename "\"inet.queueing.queue.DropTailQueue\""
par UrbanDenseNetwork.router.ppp[0].queue displayStringTextFormat "\"contains %p pk (%l) pushed %u\\npulled %o removed %r dropped %d\""
par UrbanDenseNetwork.router.ppp[0].queue packetCapacity 10000
par UrbanDenseNetwork.router.ppp[0].queue dataCapacity -1b
attr unit b
par UrbanDenseNetwork.router.ppp[0].queue dropperClass "\"inet::queueing::PacketAtCollectionEndDropper\""
par UrbanDenseNetwork.router.ppp[0].queue comparatorClass "\"\""
par UrbanDenseNetwork.router.ppp[0].queue bufferModule "\"\""
scalar UrbanDenseNetwork.router.ppp[0].queue queueLength:last nan
attr autoWarmupFilter false
attr interpolationmode sample-hold
attr recordingmode last
attr source "warmup(atomic(constant0(packetPushEnded) + count(packetPushStarted) - count(packetPulled) - count(packetRemoved) - count(packetDropped)))"
attr title "queue length, last"
attr unit pk
scalar UrbanDenseNetwork.router.ppp[0].queue queueLength:max nan
attr autoWarmupFilter false
attr interpolationmode sample-hold
attr recordingmode max
attr source "warmup(atomic(constant0(packetPushEnded) + count(packetPushStarted) - count(packetPulled) - count(packetRemoved) - count(packetDropped)))"
attr title "queue length, max"
attr unit pk
scalar UrbanDenseNetwork.router.ppp[0].queue queueLength:timeavg nan
attr autoWarmupFilter false
attr interpolationmode sample-hold
attr recordingmode timeavg
attr source "warmup(atomic(constant0(packetPushEnded) + count(packetPushStarted) - count(packetPulled) - count(packetRemoved) - count(packetDropped)))"
attr title "queue length, timeavg"
attr unit pk
scalar UrbanDenseNetwork.router.ppp[0].queue queueBitLength:last nan
attr autoWarmupFilter false
attr interpolationmode sample-hold
attr recordingmode last
attr source "warmup(atomic(constant0(packetPushEnded) + sum(packetLength(packetPushStarted)) - sum(packetLength(packetPulled)) - sum(packetLength(packetRemoved)) - sum(packetLength(packetDropped))))"
attr title "queue bit length, last"
attr unit b
scalar UrbanDenseNetwork.router.ppp[0].queue queueBitLength:max nan
attr autoWarmupFilter false
attr interpolationmode sample-hold
attr recordingmode max
attr source "warmup(atomic(constant0(packetPushEnded) + sum(packetLength(packetPushStarted)) - sum(packetLength(packetPulled)) - sum(packetLength(packetRemoved)) - sum(packetLength(packetDropped))))"
attr title "queue bit length, max"
attr unit b
scalar UrbanDenseNetwork.router.ppp[0].queue queueBitLength:timeavg nan
attr autoWarmupFilter false
attr interpolationmode sample-hold
attr recordingmode timeavg
attr source "warmup(atomic(constant0(packetPushEnded) + sum(packetLength(packetPushStarted)) - sum(packetLength(packetPulled)) - sum(packetLength(packetRemoved)) - sum(packetLength(packetDropped))))"
attr title "queue bit length, timeavg"
attr unit b
statistic UrbanDenseNetwork.router.ppp[0].queue queueingTime:histogram
field count 0
field mean nan
field stddev nan
field min nan
field max nan
field sum 0
field sqrsum 0
attr interpolationmode none
attr recordingmode histogram
attr source queueingTime(packetPulled)
attr title "queueing times"
attr unit s
bin	-inf	0
bin	0	0
bin	1	0
scalar UrbanDenseNetwork.router.ppp[0].queue outgoingPackets:count 0
attr recordingmode count
attr source packetPulled
attr title "outgoing packets, count"
attr unit pk
scalar UrbanDenseNetwork.router.ppp[0].queue outgoingPacketLengths:sum 0
attr interpolationmode none
attr recordingmode sum
attr source packetLength(packetPulled)
attr title "outgoing packet lengths, sum"
attr unit b
statistic UrbanDenseNetwork.router.ppp[0].queue outgoingPacketLengths:histogram
field count 0
field mean nan
field stddev nan
field min nan
field max nan
field sum 0
field sqrsum 0
attr interpolationmode none
attr recordingmode histogram
attr source packetLength(packetPulled)
attr title "outgoing packet lengths"
attr unit b
bin	-inf	0
bin	0	0
bin	1	0
statistic UrbanDenseNetwork.router.ppp[0].queue flowQueueingTime:histogram
field count 0
field mean nan
field stddev nan
field min nan
field max nan
field sum 0
field sqrsum 0
attr interpolationmode none
attr recordingmode histogram
attr source queueingTime(demuxFlow(packetPulled))
attr title "flow queueing times"
attr unit s
bin	-inf	0
bin	0	0
bin	1	0
scalar UrbanDenseNetwork.router.ppp[0].queue incomingPackets:count 0
attr recordingmode count
attr source packetPushStarted
attr title "incoming packets, count"
attr unit pk
scalar UrbanDenseNetwork.router.ppp[0].queue incomingPacketLengths:sum 0
attr interpolationmode none
attr recordingmode sum
attr source packetLength(packetPushStarted)
attr title "incoming packet lengths, sum"
attr unit b
statistic UrbanDenseNetwork.router.ppp[0].queue incomingPacketLengths:histogram
field count 0
field mean nan
field stddev nan
field min nan
field max nan
field sum 0
field sqrsum 0
attr interpolationmode none
attr recordingmode histogram
attr source packetLength(packetPushStarted)
attr title "incoming packet lengths"
attr unit b
bin	-inf	0
bin	0	0
bin	1	0
scalar UrbanDenseNetwork.router.ppp[0].queue droppedPacketsQueueOverflow:count 0
attr interpolationmode none
attr recordingmode count
attr source packetDropReasonIsQueueOverflow(packetDropped)
attr title "dropped packets: queue overflow, count"
attr unit pk
scalar UrbanDenseNetwork.router.ppp[0].queue droppedPacketLengthsQueueOverflow:sum 0
attr interpolationmode none
attr recordingmode sum
attr source packetLength(packetDropReasonIsQueueOverflow(packetDropped))
attr title "dropped packet lengths: queue overflow, sum"
attr unit b
par UrbanDenseNetwork.router.ppp[0].ppp typename "\"inet.linklayer.ppp.Ppp\""
par UrbanDenseNetwork.router.ppp[0].ppp interfaceTableModule "\"UrbanDenseNetwork.router.interfaceTable\""
par UrbanDenseNetwork.router.ppp[0].ppp displayStringTextFormat "\"rate: %b\\nsent: %s, rcvd: %r\\nqueue: %q, drop: %d\""
par UrbanDenseNetwork.router.ppp[0].ppp sendRawBytes false
par UrbanDenseNetwork.router.ppp[0].ppp mtu 4470B
attr unit B
par UrbanDenseNetwork.router.ppp[0].ppp stopOperationExtraTime -1s
attr unit s
par UrbanDenseNetwork.router.ppp[0].ppp stopOperationTimeout 2s
attr unit s
scalar UrbanDenseNetwork.router.ppp[0].ppp txPk:count 0
attr interpolationmode none
attr recordingmode count
attr source packetSentToLower
attr title "packets transmitted, count"
scalar UrbanDenseNetwork.router.ppp[0].ppp txPk:sum(packetBytes) 0
attr interpolationmode none
attr recordingmode sum(packetBytes)
attr source packetSentToLower
attr title "packets transmitted, sum(packetBytes)"
scalar UrbanDenseNetwork.router.ppp[0].ppp rcvdPkFromHl:count 0
attr interpolationmode none
attr recordingmode count
attr source packetReceivedFromUpper
attr title "packets received from higher layer, count"
scalar UrbanDenseNetwork.router.ppp[0].ppp rcvdPkFromHl:sum(packetBytes) 0
attr interpolationmode none
attr recordingmode sum(packetBytes)
attr source packetReceivedFromUpper
attr title "packets received from higher layer, sum(packetBytes)"
scalar UrbanDenseNetwork.router.ppp[0].ppp passedUpPk:count 0
attr interpolationmode none
attr recordingmode count
attr source packetSentToUpper
attr title "packets passed to higher layer, count"
scalar UrbanDenseNetwork.router.ppp[0].ppp passedUpPk:sum(packetBytes) 0
attr interpolationmode none
attr recordingmode sum(packetBytes)
attr source packetSentToUpper
attr title "packets passed to higher layer, sum(packetBytes)"
scalar UrbanDenseNetwork.router.ppp[0].ppp packetDropIncorrectlyReceived:count 0
attr interpolationmode none
attr recordingmode count
attr source packetDropReasonIsIncorrectlyReceived(packetDropped)
attr title "packet drop: incorrectly received, count"
scalar UrbanDenseNetwork.router.ppp[0].ppp packetDropIncorrectlyReceived:sum(packetBytes) 0
attr interpolationmode none
attr recordingmode sum(packetBytes)
attr source packetDropReasonIsIncorrectlyReceived(packetDropped)
attr title "packet drop: incorrectly received, sum(packetBytes)"
scalar UrbanDenseNetwork.router.ppp[0].ppp packetDropInterfaceDown:count 0
attr interpolationmode none
attr recordingmode count
attr source packetDropReasonIsInterfaceDown(packetDropped)
attr title "packet drop: interface down, count"
scalar UrbanDenseNetwork.router.ppp[0].ppp packetDropInterfaceDown:sum(packetBytes) 0
attr interpolationmode none
attr recordingmode sum(packetBytes)
attr source packetDropReasonIsInterfaceDown(packetDropped)
attr title "packet drop: interface down, sum(packetBytes)"
scalar UrbanDenseNetwork.router.ppp[0].ppp rxPkOk:count 0
attr interpolationmode none
attr recordingmode count
attr source rxPkOk
attr title "packets received OK, count"
scalar UrbanDenseNetwork.router.ppp[0].ppp rxPkOk:sum(packetBytes) 0
attr interpolationmode none
attr recordingmode sum(packetBytes)
attr source rxPkOk
attr title "packets received OK, sum(packetBytes)"
scalar UrbanDenseNetwork.router.ppp[0].ppp transmissionState:timeavg nan
attr interpolationmode sample-hold
attr recordingmode timeavg
attr source transmissionStateChanged
attr title "tx state, timeavg"
par UrbanDenseNetwork.router.ppp[0] typename "\"inet.linklayer.ppp.PppInterface\""
par UrbanDenseNetwork.router.ppp[0] displayStringTextFormat "\"%a (%i)\\n%m\""
par UrbanDenseNetwork.router.ppp[0] recordPcap false
par UrbanDenseNetwork.router.ppp[0] numPcapRecorders 0
par UrbanDenseNetwork.router.ppp[0] interfaceTableModule "\"UrbanDenseNetwork.router.interfaceTable\""
scalar UrbanDenseNetwork.router.ppp[0] packetDropInterfaceDown:count 0
attr interpolationmode none
attr recordingmode count
attr source packetDropReasonIsInterfaceDown(packetDropped)
attr title "packet drops: interface down, count"
scalar UrbanDenseNetwork.router.ppp[0] packetDropInterfaceDown:sum(packetBytes) 0
attr interpolationmode none
attr recordingmode sum(packetBytes)
attr source packetDropReasonIsInterfaceDown(packetDropped)
attr title "packet drops: interface down, sum(packetBytes)"
scalar UrbanDenseNetwork.router.ppp[0] packetDropNoCarrier:count 0
attr interpolationmode none
attr recordingmode count
attr source packetDropReasonIsNoCarrier(packetDropped)
attr title "packet drops: no carrier, count"
scalar UrbanDenseNetwork.router.ppp[0] packetDropNoCarrier:sum(packetBytes) 0
attr interpolationmode none
attr recordingmode sum(packetBytes)
attr source packetDropReasonIsNoCarrier(packetDropped)
attr title "packet drops: no carrier, sum(packetBytes)"
par UrbanDenseNetwork.router.ppp[1].phys$i.channel typename "\"ned.IdealChannel\""
par UrbanDenseNetwork.router.ppp[1].ppp.phys$o.channel typename "\"ned.IdealChannel\""
par UrbanDenseNetwork.router.ppp[1].ppp.upperLayerOut.channel typename "\"ned.IdealChannel\""
par UrbanDenseNetwork.router.ppp[1].upperLayerIn.channel typename "\"ned.IdealChannel\""
par UrbanDenseNetwork.router.ppp[1].queue typename "\"inet.queueing.queue.DropTailQueue\""
par UrbanDenseNetwork.router.ppp[1].queue displayStringTextFormat "\"contains %p pk (%l) pushed %u\\npulled %o removed %r dropped %d\""
par UrbanDenseNetwork.router.ppp[1].queue packetCapacity 10000
par UrbanDenseNetwork.router.ppp[1].queue dataCapacity -1b
attr unit b
par UrbanDenseNetwork.router.ppp[1].queue dropperClass "\"inet::queueing::PacketAtCollectionEndDropper\""
par UrbanDenseNetwork.router.ppp[1].queue comparatorClass "\"\""
par UrbanDenseNetwork.router.ppp[1].queue bufferModule "\"\""
scalar UrbanDenseNetwork.router.ppp[1].queue queueLength:last nan
attr autoWarmupFilter false
attr interpolationmode sample-hold
attr recordingmode last
attr source "warmup(atomic(constant0(packetPushEnded) + count(packetPushStarted) - count(packetPulled) - count(packetRemoved) - count(packetDropped)))"
attr title "queue length, last"
attr unit pk
scalar UrbanDenseNetwork.router.ppp[1].queue queueLength:max nan
attr autoWarmupFilter false
attr interpolationmode sample-hold
attr recordingmode max
attr source "warmup(atomic(constant0(packetPushEnded) + count(packetPushStarted) - count(packetPulled) - count(packetRemoved) - count(packetDropped)))"
attr title "queue length, max"
attr unit pk
scalar UrbanDenseNetwork.router.ppp[1].queue queueLength:timeavg nan
attr autoWarmupFilter false
attr interpolationmode sample-hold
attr recordingmode timeavg
attr source "warmup(atomic(constant0(packetPushEnded) + count(packetPushStarted) - count(packetPulled) - count(packetRemoved) - count(packetDropped)))"
attr title "queue length, timeavg"
attr unit pk
scalar UrbanDenseNetwork.router.ppp[1].queue queueBitLength:last nan
attr autoWarmupFilter false
attr interpolationmode sample-hold
attr recordingmode last
attr source "warmup(atomic(constant0(packetPushEnded) + sum(packetLength(packetPushStarted)) - sum(packetLength(packetPulled)) - sum(packetLength(packetRemoved)) - sum(packetLength(packetDropped))))"
attr title "queue bit length, last"
attr unit b
scalar UrbanDenseNetwork.router.ppp[1].queue queueBitLength:max nan
attr autoWarmupFilter false
attr interpolationmode sample-hold
attr recordingmode max
attr source "warmup(atomic(constant0(packetPushEnded) + sum(packetLength(packetPushStarted)) - sum(packetLength(packetPulled)) - sum(packetLength(packetRemoved)) - sum(packetLength(packetDropped))))"
attr title "queue bit length, max"
attr unit b
scalar UrbanDenseNetwork.router.ppp[1].queue queueBitLength:timeavg nan
attr autoWarmupFilter false
attr interpolationmode sample-hold
attr recordingmode timeavg
attr source "warmup(atomic(constant0(packetPushEnded) + sum(packetLength(packetPushStarted)) - sum(packetLength(packetPulled)) - sum(packetLength(packetRemoved)) - sum(packetLength(packetDropped))))"
attr title "queue bit length, timeavg"
attr unit b
statistic UrbanDenseNetwork.router.ppp[1].queue queueingTime:histogram
field count 0
field mean nan
field stddev nan
field min nan
field max nan
field sum 0
field sqrsum 0
attr interpolationmode none
attr recordingmode histogram
attr source queueingTime(packetPulled)
attr title "queueing times"
attr unit s
bin	-inf	0
bin	0	0
bin	1	0
scalar UrbanDenseNetwork.router.ppp[1].queue outgoingPackets:count 0
attr recordingmode count
attr source packetPulled
attr title "outgoing packets, count"
attr unit pk
scalar UrbanDenseNetwork.router.ppp[1].queue outgoingPacketLengths:sum 0
attr interpolationmode none
attr recordingmode sum
attr source packetLength(packetPulled)
attr title "outgoing packet lengths, sum"
attr unit b
statistic UrbanDenseNetwork.router.ppp[1].queue outgoingPacketLengths:histogram
field count 0
field mean nan
field stddev nan
field min nan
field max nan
field sum 0
field sqrsum 0
attr interpolationmode none
attr recordingmode histogram
attr source packetLength(packetPulled)
attr title "outgoing packet lengths"
attr unit b
bin	-inf	0
bin	0	0
bin	1	0
statistic UrbanDenseNetwork.router.ppp[1].queue flowQueueingTime:histogram
field count 0
field mean nan
field stddev nan
field min nan
field max nan
field sum 0
field sqrsum 0
attr interpolationmode none
attr recordingmode histogram
attr source queueingTime(demuxFlow(packetPulled))
attr title "flow queueing times"
attr unit s
bin	-inf	0
bin	0	0
bin	1	0
scalar UrbanDenseNetwork.router.ppp[1].queue incomingPackets:count 0
attr recordingmode count
attr source packetPushStarted
attr title "incoming packets, count"
attr unit pk
scalar UrbanDenseNetwork.router.ppp[1].queue incomingPacketLengths:sum 0
attr interpolationmode none
attr recordingmode sum
attr source packetLength(packetPushStarted)
attr title "incoming packet lengths, sum"
attr unit b
statistic UrbanDenseNetwork.router.ppp[1].queue incomingPacketLengths:histogram
field count 0
field mean nan
field stddev nan
field min nan
field max nan
field sum 0
field sqrsum 0
attr interpolationmode none
attr recordingmode histogram
attr source packetLength(packetPushStarted)
attr title "incoming packet lengths"
attr unit b
bin	-inf	0
bin	0	0
bin	1	0
scalar UrbanDenseNetwork.router.ppp[1].queue droppedPacketsQueueOverflow:count 0
attr interpolationmode none
attr recordingmode count
attr source packetDropReasonIsQueueOverflow(packetDropped)
attr title "dropped packets: queue overflow, count"
attr unit pk
scalar UrbanDenseNetwork.router.ppp[1].queue droppedPacketLengthsQueueOverflow:sum 0
attr interpolationmode none
attr recordingmode sum
attr source packetLength(packetDropReasonIsQueueOverflow(packetDropped))
attr title "dropped packet lengths: queue overflow, sum"
attr unit b
par UrbanDenseNetwork.router.ppp[1].ppp typename "\"inet.linklayer.ppp.Ppp\""
par UrbanDenseNetwork.router.ppp[1].ppp interfaceTableModule "\"UrbanDenseNetwork.router.interfaceTable\""
par UrbanDenseNetwork.router.ppp[1].ppp displayStringTextFormat "\"rate: %b\\nsent: %s, rcvd: %r\\nqueue: %q, drop: %d\""
par UrbanDenseNetwork.router.ppp[1].ppp sendRawBytes false
par UrbanDenseNetwork.router.ppp[1].ppp mtu 4470B
attr unit B
par UrbanDenseNetwork.router.ppp[1].ppp stopOperationExtraTime -1s
attr unit s
par UrbanDenseNetwork.router.ppp[1].ppp stopOperationTimeout 2s
attr unit s
scalar UrbanDenseNetwork.router.ppp[1].ppp txPk:count 0
attr interpolationmode none
attr recordingmode count
attr source packetSentToLower
attr title "packets transmitted, count"
scalar UrbanDenseNetwork.router.ppp[1].ppp txPk:sum(packetBytes) 0
attr interpolationmode none
attr recordingmode sum(packetBytes)
attr source packetSentToLower
attr title "packets transmitted, sum(packetBytes)"
scalar UrbanDenseNetwork.router.ppp[1].ppp rcvdPkFromHl:count 0
attr interpolationmode none
attr recordingmode count
attr source packetReceivedFromUpper
attr title "packets received from higher layer, count"
scalar UrbanDenseNetwork.router.ppp[1].ppp rcvdPkFromHl:sum(packetBytes) 0
attr interpolationmode none
attr recordingmode sum(packetBytes)
attr source packetReceivedFromUpper
attr title "packets received from higher layer, sum(packetBytes)"
scalar UrbanDenseNetwork.router.ppp[1].ppp passedUpPk:count 0
attr interpolationmode none
attr recordingmode count
attr source packetSentToUpper
attr title "packets passed to higher layer, count"
scalar UrbanDenseNetwork.router.ppp[1].ppp passedUpPk:sum(packetBytes) 0
attr interpolationmode none
attr recordingmode sum(packetBytes)
attr source packetSentToUpper
attr title "packets passed to higher layer, sum(packetBytes)"
scalar UrbanDenseNetwork.router.ppp[1].ppp packetDropIncorrectlyReceived:count 0
attr interpolationmode none
attr recordingmode count
attr source packetDropReasonIsIncorrectlyReceived(packetDropped)
attr title "packet drop: incorrectly received, count"
scalar UrbanDenseNetwork.router.ppp[1].ppp packetDropIncorrectlyReceived:sum(packetBytes) 0
attr interpolationmode none
attr recordingmode sum(packetBytes)
attr source packetDropReasonIsIncorrectlyReceived(packetDropped)
attr title "packet drop: incorrectly received, sum(packetBytes)"
scalar UrbanDenseNetwork.router.ppp[1].ppp packetDropInterfaceDown:count 0
attr interpolationmode none
attr recordingmode count
attr source packetDropReasonIsInterfaceDown(packetDropped)
attr title "packet drop: interface down, count"
scalar UrbanDenseNetwork.router.ppp[1].ppp packetDropInterfaceDown:sum(packetBytes) 0
attr interpolationmode none
attr recordingmode sum(packetBytes)
attr source packetDropReasonIsInterfaceDown(packetDropped)
attr title "packet drop: interface down, sum(packetBytes)"
scalar UrbanDenseNetwork.router.ppp[1].ppp rxPkOk:count 0
attr interpolationmode none
attr recordingmode count
attr source rxPkOk
attr title "packets received OK, count"
scalar UrbanDenseNetwork.router.ppp[1].ppp rxPkOk:sum(packetBytes) 0
attr interpolationmode none
attr recordingmode sum(packetBytes)
attr source rxPkOk
attr title "packets received OK, sum(packetBytes)"
scalar UrbanDenseNetwork.router.ppp[1].ppp transmissionState:timeavg nan
attr interpolationmode sample-hold
attr recordingmode timeavg
attr source transmissionStateChanged
attr title "tx state, timeavg"
par UrbanDenseNetwork.router.ppp[1] typename "\"inet.linklayer.ppp.PppInterface\""
par UrbanDenseNetwork.router.ppp[1] displayStringTextFormat "\"%a (%i)\\n%m\""
par UrbanDenseNetwork.router.ppp[1] recordPcap false
par UrbanDenseNetwork.router.ppp[1] numPcapRecorders 0
par UrbanDenseNetwork.router.ppp[1] interfaceTableModule "\"UrbanDenseNetwork.router.interfaceTable\""
scalar UrbanDenseNetwork.router.ppp[1] packetDropInterfaceDown:count 0
attr interpolationmode none
attr recordingmode count
attr source packetDropReasonIsInterfaceDown(packetDropped)
attr title "packet drops: interface down, count"
scalar UrbanDenseNetwork.router.ppp[1] packetDropInterfaceDown:sum(packetBytes) 0
attr interpolationmode none
attr recordingmode sum(packetBytes)
attr source packetDropReasonIsInterfaceDown(packetDropped)
attr title "packet drops: interface down, sum(packetBytes)"
scalar UrbanDenseNetwork.router.ppp[1] packetDropNoCarrier:count 0
attr interpolationmode none
attr recordingmode count
attr source packetDropReasonIsNoCarrier(packetDropped)
attr title "packet drops: no carrier, count"
scalar UrbanDenseNetwork.router.ppp[1] packetDropNoCarrier:sum(packetBytes) 0
attr interpolationmode none
attr recordingmode sum(packetBytes)
attr source packetDropReasonIsNoCarrier(packetDropped)
attr title "packet drops: no carrier, sum(packetBytes)"
par UrbanDenseNetwork.router.ipv4.transportIn.channel typename "\"ned.IdealChannel\""
par UrbanDenseNetwork.router.ipv4.up.out[0].channel typename "\"ned.IdealChannel\""
par UrbanDenseNetwork.router.ipv4.lp.out[2].channel typename "\"ned.IdealChannel\""
par UrbanDenseNetwork.router.ipv4.ifIn.channel typename "\"ned.IdealChannel\""
par UrbanDenseNetwork.router.ipv4.configurator typename "\"inet.networklayer.configurator.ipv4.Ipv4NodeConfigurator\""
par UrbanDenseNetwork.router.ipv4.configurator interfaceTableModule "\"UrbanDenseNetwork.router.interfaceTable\""
par UrbanDenseNetwork.router.ipv4.configurator routingTableModule "\"UrbanDenseNetwork.router.ipv4.routingTable\""
par UrbanDenseNetwork.router.ipv4.configurator networkConfiguratorModule "\"configurator\""
par UrbanDenseNetwork.router.ipv4.configurator configureRoutingTable true
par UrbanDenseNetwork.router.ipv4.routingTable typename "\"inet.networklayer.ipv4.Ipv4RoutingTable\""
par UrbanDenseNetwork.router.ipv4.routingTable interfaceTableModule "\"UrbanDenseNetwork.router.interfaceTable\""
par UrbanDenseNetwork.router.ipv4.routingTable routerId "\"auto\""
par UrbanDenseNetwork.router.ipv4.routingTable netmaskRoutes "\"*\""
par UrbanDenseNetwork.router.ipv4.routingTable forwarding true
par UrbanDenseNetwork.router.ipv4.routingTable multicastForwarding false
par UrbanDenseNetwork.router.ipv4.routingTable useAdminDist false
par UrbanDenseNetwork.router.ipv4.routingTable routingFile "\"\""
par UrbanDenseNetwork.router.ipv4.natTable typename "\"inet.networklayer.ipv4.Ipv4NatTable\""
par UrbanDenseNetwork.router.ipv4.natTable networkProtocolModule "\"^.ip\""
par UrbanDenseNetwork.router.ipv4.natTable config "<config/> at content:1"
par UrbanDenseNetwork.router.ipv4.up typename "\"inet.common.MessageDispatcher\""
par UrbanDenseNetwork.router.ipv4.up displayStringTextFormat "\"processed %p pk (%l)\""
par UrbanDenseNetwork.router.ipv4.up forwardServiceRegistration true
par UrbanDenseNetwork.router.ipv4.up forwardProtocolRegistration true
par UrbanDenseNetwork.router.ipv4.igmp typename "\"inet.networklayer.ipv4.Igmpv2\""
par UrbanDenseNetwork.router.ipv4.igmp interfaceTableModule "\"UrbanDenseNetwork.router.interfaceTable\""
par UrbanDenseNetwork.router.ipv4.igmp routingTableModule "\"UrbanDenseNetwork.router.ipv4.routingTable\""
par UrbanDenseNetwork.router.ipv4.igmp crcMode "\"declared\""
attr enum declared,computed
par UrbanDenseNetwork.router.ipv4.igmp enabled true
par UrbanDenseNetwork.router.ipv4.igmp robustnessVariable 2
par UrbanDenseNetwork.router.ipv4.igmp queryInterval 125s
attr unit s
par UrbanDenseNetwork.router.ipv4.igmp queryResponseInterval 10s
attr unit s
par UrbanDenseNetwork.router.ipv4.igmp groupMembershipInterval 260s
attr unit s
par UrbanDenseNetwork.router.ipv4.igmp otherQuerierPresentInterval 255s
attr unit s
par UrbanDenseNetwork.router.ipv4.igmp startupQueryInterval 31.25s
attr unit s
par UrbanDenseNetwork.router.ipv4.igmp startupQueryCount 2
par UrbanDenseNetwork.router.ipv4.igmp lastMemberQueryInterval 1s
attr unit s
par UrbanDenseNetwork.router.ipv4.igmp lastMemberQueryCount 2
par UrbanDenseNetwork.router.ipv4.igmp unsolicitedReportInterval 10s
attr unit s
par UrbanDenseNetwork.router.ipv4.icmp typename "\"inet.networklayer.ipv4.Icmp\""
par UrbanDenseNetwork.router.ipv4.icmp interfaceTableModule "\"UrbanDenseNetwork.router.interfaceTable\""
par UrbanDenseNetwork.router.ipv4.icmp routingTableModule "\"UrbanDenseNetwork.router.ipv4.routingTable\""
par UrbanDenseNetwork.router.ipv4.icmp crcMode "\"declared\""
attr enum declared,computed
attr mutable ""
par UrbanDenseNetwork.router.ipv4.icmp quoteLength 8B
attr mutable ""
attr unit B
par UrbanDenseNetwork.router.ipv4.mp typename "\"inet.common.MessageDispatcher\""
par UrbanDenseNetwork.router.ipv4.mp displayStringTextFormat "\"processed %p pk (%l)\""
par UrbanDenseNetwork.router.ipv4.mp forwardServiceRegistration true
par UrbanDenseNetwork.router.ipv4.mp forwardProtocolRegistration true
par UrbanDenseNetwork.router.ipv4.ip typename "\"inet.networklayer.ipv4.Ipv4\""
par UrbanDenseNetwork.router.ipv4.ip interfaceTableModule "\"UrbanDenseNetwork.router.interfaceTable\""
par UrbanDenseNetwork.router.ipv4.ip routingTableModule "\"UrbanDenseNetwork.router.ipv4.routingTable\""
par UrbanDenseNetwork.router.ipv4.ip arpModule "\"UrbanDenseNetwork.router.ipv4.arp\""
par UrbanDenseNetwork.router.ipv4.ip icmpModule "\"UrbanDenseNetwork.router.ipv4.icmp\""
par UrbanDenseNetwork.router.ipv4.ip crcMode "\"declared\""
attr enum declared,computed
par UrbanDenseNetwork.router.ipv4.ip timeToLive 32
par UrbanDenseNetwork.router.ipv4.ip multicastTimeToLive 32
par UrbanDenseNetwork.router.ipv4.ip fragmentTimeout 60s
attr unit s
par UrbanDenseNetwork.router.ipv4.ip limitedBroadcast false
par UrbanDenseNetwork.router.ipv4.ip directBroadcastInterfaces "\"\""
scalar UrbanDenseNetwork.router.ipv4.ip packetDropAddressResolutionFailed:count 0
attr interpolationmode none
attr recordingmode count
attr source packetDropReasonIsAddressResolutionFailed(packetDropped)
attr title "packet drop: address resolution failed, count"
scalar UrbanDenseNetwork.router.ipv4.ip packetDropAddressResolutionFailed:sum(packetBytes) 0
attr interpolationmode none
attr recordingmode sum(packetBytes)
attr source packetDropReasonIsAddressResolutionFailed(packetDropped)
attr title "packet drop: address resolution failed, sum(packetBytes)"
scalar UrbanDenseNetwork.router.ipv4.ip packetDropHopLimitReached:count 0
attr interpolationmode none
attr recordingmode count
attr source packetDropReasonIsHopLimitReached(packetDropped)
attr title "packet drop: hop limit reached, count"
scalar UrbanDenseNetwork.router.ipv4.ip packetDropHopLimitReached:sum(packetBytes) 0
attr interpolationmode none
attr recordingmode sum(packetBytes)
attr source packetDropReasonIsHopLimitReached(packetDropped)
attr title "packet drop: hop limit reached, sum(packetBytes)"
scalar UrbanDenseNetwork.router.ipv4.ip packetDropForwardingDisabled:count 0
attr interpolationmode none
attr recordingmode count
attr source packetDropReasonIsForwardingDisabled(packetDropped)
attr title "packet drop: forwarding disabled, count"
scalar UrbanDenseNetwork.router.ipv4.ip packetDropForwardingDisabled:sum(packetBytes) 0
attr interpolationmode none
attr recordingmode sum(packetBytes)
attr source packetDropReasonIsForwardingDisabled(packetDropped)
attr title "packet drop: forwarding disabled, sum(packetBytes)"
scalar UrbanDenseNetwork.router.ipv4.ip packetDropNoInterfaceFound:count 0
attr interpolationmode none
attr recordingmode count
attr source packetDropReasonIsNoInterfaceFound(packetDropped)
attr title "packet drop: no interface found, count"
scalar UrbanDenseNetwork.router.ipv4.ip packetDropNoInterfaceFound:sum(packetBytes) 0
attr interpolationmode none
attr recordingmode sum(packetBytes)
attr source packetDropReasonIsNoInterfaceFound(packetDropped)
attr title "packet drop: no interface found, sum(packetBytes)"
scalar UrbanDenseNetwork.router.ipv4.ip packetDropNoRouteFound:count 0
attr interpolationmode none
attr recordingmode count
attr source packetDropReasonIsNoRouteFound(packetDropped)
attr title "packet drop: no route found, count"
scalar UrbanDenseNetwork.router.ipv4.ip packetDropNoRouteFound:sum(packetBytes) 0
attr interpolationmode none
attr recordingmode sum(packetBytes)
attr source packetDropReasonIsNoRouteFound(packetDropped)
attr title "packet drop: no route found, sum(packetBytes)"
scalar UrbanDenseNetwork.router.ipv4.ip packetDropUndefined:count 0
attr interpolationmode none
attr recordingmode count
attr source packetDropReasonIsUndefined(packetDropped)
attr title "packet drop: undefined, count"
scalar UrbanDenseNetwork.router.ipv4.ip packetDropUndefined:sum(packetBytes) 0
attr interpolationmode none
attr recordingmode sum(packetBytes)
attr source packetDropReasonIsUndefined(packetDropped)
attr title "packet drop: undefined, sum(packetBytes)"
par UrbanDenseNetwork.router.ipv4.arp typename "\"inet.networklayer.arp.ipv4.Arp\""
par UrbanDenseNetwork.router.ipv4.arp interfaceTableModule "\"UrbanDenseNetwork.router.interfaceTable\""
par UrbanDenseNetwork.router.ipv4.arp routingTableModule "\"UrbanDenseNetwork.router.ipv4.routingTable\""
par UrbanDenseNetwork.router.ipv4.arp retryTimeout 1s
attr unit s
par UrbanDenseNetwork.router.ipv4.arp retryCount 3
par UrbanDenseNetwork.router.ipv4.arp cacheTimeout 120s
attr unit s
par UrbanDenseNetwork.router.ipv4.arp proxyArpInterfaces "\"*\""
scalar UrbanDenseNetwork.router.ipv4.arp arpReplySent:count 0
attr recordingmode count
attr source arpReplySent
attr title "ARP replies sent, count"
scalar UrbanDenseNetwork.router.ipv4.arp arpReplySent:sum(packetBytes) 0
attr recordingmode sum(packetBytes)
attr source arpReplySent
attr title "ARP replies sent, sum(packetBytes)"
scalar UrbanDenseNetwork.router.ipv4.arp arpRequestSent:count 0
attr recordingmode count
attr source arpRequestSent
attr title "ARP request sent, count"
scalar UrbanDenseNetwork.router.ipv4.arp arpRequestSent:sum(packetBytes) 0
attr recordingmode sum(packetBytes)
attr source arpRequestSent
attr title "ARP request sent, sum(packetBytes)"
scalar UrbanDenseNetwork.router.ipv4.arp arpResolutionFailed:count 0
attr recordingmode count
attr title "ARP failed resolutions, count"
scalar UrbanDenseNetwork.router.ipv4.arp arpResolutionCompleted:count 0
attr recordingmode count
attr title "ARP completed resolutions, count"
scalar UrbanDenseNetwork.router.ipv4.arp arpResolutionInitiated:count 0
attr recordingmode count
attr title "ARP initiated resolutions, count"
par UrbanDenseNetwork.router.ipv4.lp typename "\"inet.common.MessageDispatcher\""
par UrbanDenseNetwork.router.ipv4.lp displayStringTextFormat "\"processed %p pk (%l)\""
par UrbanDenseNetwork.router.ipv4.lp forwardServiceRegistration true
par UrbanDenseNetwork.router.ipv4.lp forwardProtocolRegistration true
par UrbanDenseNetwork.router.ipv4 typename "\"inet.networklayer.ipv4.Ipv4NetworkLayer\""
par UrbanDenseNetwork.router.ipv4 forwarding true
par UrbanDenseNetwork.router.ipv4 multicastForwarding false
par UrbanDenseNetwork.router.ipv4 interfaceTableModule "\"UrbanDenseNetwork.router.interfaceTable\""
par UrbanDenseNetwork.router.ipv4 displayStringTextFormat "\"%i\""
par UrbanDenseNetwork.router.nl typename "\"inet.common.MessageDispatcher\""
par UrbanDenseNetwork.router.nl displayStringTextFormat "\"processed %p pk (%l)\""
par UrbanDenseNetwork.router.nl forwardServiceRegistration true
par UrbanDenseNetwork.router.nl forwardProtocolRegistration true
par UrbanDenseNetwork.router.tn typename "\"inet.common.MessageDispatcher\""
par UrbanDenseNetwork.router.tn displayStringTextFormat "\"processed %p pk (%l)\""
par UrbanDenseNetwork.router.tn forwardServiceRegistration true
par UrbanDenseNetwork.router.tn forwardProtocolRegistration true
par UrbanDenseNetwork.router.at typename "\"inet.common.MessageDispatcher\""
par UrbanDenseNetwork.router.at displayStringTextFormat "\"processed %p pk (%l)\""
par UrbanDenseNetwork.router.at forwardServiceRegistration true
par UrbanDenseNetwork.router.at forwardProtocolRegistration true
par UrbanDenseNetwork.router typename "\"inet.node.inet.Router\""
par UrbanDenseNetwork.router hasStatus false
par UrbanDenseNetwork.router osgModel "\"\""
par UrbanDenseNetwork.router osgModelColor "\"\""
par UrbanDenseNetwork.router canvasImage "\"\""
par UrbanDenseNetwork.router canvasImageColor "\"\""
par UrbanDenseNetwork.router recordPcap false
par UrbanDenseNetwork.router numPcapRecorders 0
par UrbanDenseNetwork.router numLoInterfaces 1
par UrbanDenseNetwork.router numWlanInterfaces 0
par UrbanDenseNetwork.router numEthInterfaces 0
par UrbanDenseNetwork.router numPppInterfaces 0
par UrbanDenseNetwork.router numTunInterfaces 0
par UrbanDenseNetwork.router numVirtInterfaces 0
par UrbanDenseNetwork.router fcsMode "\"declared\""
attr enum declared,computed
par UrbanDenseNetwork.router hasIpv4 true
par UrbanDenseNetwork.router hasIpv6 false
par UrbanDenseNetwork.router hasGn false
par UrbanDenseNetwork.router forwarding true
par UrbanDenseNetwork.router multicastForwarding false
par UrbanDenseNetwork.router hasUdp false
par UrbanDenseNetwork.router hasTcp false
par UrbanDenseNetwork.router hasSctp false
par UrbanDenseNetwork.router numApps 0
par UrbanDenseNetwork.router hasEigrp false
par UrbanDenseNetwork.router hasOspf false
par UrbanDenseNetwork.router hasRip false
par UrbanDenseNetwork.router hasBgp false
par UrbanDenseNetwork.router hasPim false
par UrbanDenseNetwork.router hasDhcp false
par UrbanDenseNetwork.upf.pppg$i[0].channel typename "\"ned.IdealChannel\""
par UrbanDenseNetwork.upf.ppp[0].phys$o.channel typename "\"ned.IdealChannel\""
par UrbanDenseNetwork.upf.interfaceTable typename "\"inet.networklayer.common.InterfaceTable\""
par UrbanDenseNetwork.upf.interfaceTable displayAddresses false
par UrbanDenseNetwork.upf.cb typename "\"inet.common.MessageDispatcher\""
[...]
attr mutable ""
par UrbanDenseNetwork.ue[0].cellularNic d2dInitialMode false
par UrbanDenseNetwork.ue[0].cellularNic NRMacType "\"NRMacUe\""
par UrbanDenseNetwork.ue[0].cellularNic NRPhyType "\"NRPhyUe\""
par UrbanDenseNetwork.ue[0].cellularNic NRChannelModelType "\"NRChannelModel_3GPP38_901\""
par UrbanDenseNetwork.ue[0].cellularNic NRPacketFlowManagerType "\"NRPacketFlowManagerUe\""
par UrbanDenseNetwork.ue[0].cellularNic numNRCarriers 1
scalar UrbanDenseNetwork.ue[0].cellularNic packetDropInterfaceDown:count 0
attr interpolationmode none
attr recordingmode count
attr source packetDropReasonIsInterfaceDown(packetDropped)
attr title "packet drops: interface down, count"
scalar UrbanDenseNetwork.ue[0].cellularNic packetDropInterfaceDown:sum(packetBytes) 0
attr interpolationmode none
attr recordingmode sum(packetBytes)
attr source packetDropReasonIsInterfaceDown(packetDropped)
attr title "packet drops: interface down, sum(packetBytes)"
scalar UrbanDenseNetwork.ue[0].cellularNic packetDropNoCarrier:count 0
attr interpolationmode none
attr recordingmode count
attr source packetDropReasonIsNoCarrier(packetDropped)
attr title "packet drops: no carrier, count"
scalar UrbanDenseNetwork.ue[0].cellularNic packetDropNoCarrier:sum(packetBytes) 0
attr interpolationmode none
attr recordingmode sum(packetBytes)
attr source packetDropReasonIsNoCarrier(packetDropped)
attr title "packet drops: no carrier, sum(packetBytes)"
par UrbanDenseNetwork.ue[0].encap typename "\"inet.linklayer.ethernet.basic.EthernetEncapsulation\""
par UrbanDenseNetwork.ue[0].encap registerProtocol true
par UrbanDenseNetwork.ue[0].encap interfaceTableModule "\"UrbanDenseNetwork.ue[0].interfaceTable\""
par UrbanDenseNetwork.ue[0].encap fcsMode "\"declared\""
attr enum declared,computed
par UrbanDenseNetwork.ue[0].encap stopOperationExtraTime -1s
attr unit s
par UrbanDenseNetwork.ue[0].encap stopOperationTimeout 2s
attr unit s
scalar UrbanDenseNetwork.ue[0].encap decapPk:count 0
attr interpolationmode none
attr recordingmode count
attr source decapPk
attr title "packets decapsulated, count"
scalar UrbanDenseNetwork.ue[0].encap decapPk:sum(packetBytes) 0
attr interpolationmode none
attr recordingmode sum(packetBytes)
attr source decapPk
attr title "packets decapsulated, sum(packetBytes)"
scalar UrbanDenseNetwork.ue[0].encap encapPk:count 0
attr interpolationmode none
attr recordingmode count
attr source encapPk
attr title "packets encapsulated, count"
scalar UrbanDenseNetwork.ue[0].encap encapPk:sum(packetBytes) 0
attr interpolationmode none
attr recordingmode sum(packetBytes)
attr source encapPk
attr title "packets encapsulated, sum(packetBytes)"
scalar UrbanDenseNetwork.ue[0].encap pauseSent:count 0
attr recordingmode count
attr title "pause sent, count"
scalar UrbanDenseNetwork.ue[0].encap pauseSent:sum 0
attr recordingmode sum
attr title "pause sent, sum"
par UrbanDenseNetwork.ue[0].ipv4.transportIn.channel typename "\"ned.IdealChannel\""
par UrbanDenseNetwork.ue[0].ipv4.up.out[0].channel typename "\"ned.IdealChannel\""
par UrbanDenseNetwork.ue[0].ipv4.lp.out[2].channel typename "\"ned.IdealChannel\""
par UrbanDenseNetwork.ue[0].ipv4.ifIn.channel typename "\"ned.IdealChannel\""
par UrbanDenseNetwork.ue[0].ipv4.configurator typename "\"inet.networklayer.configurator.ipv4.Ipv4NodeConfigurator\""
par UrbanDenseNetwork.ue[0].ipv4.configurator interfaceTableModule "\"UrbanDenseNetwork.ue[0].interfaceTable\""
par UrbanDenseNetwork.ue[0].ipv4.configurator routingTableModule "\"UrbanDenseNetwork.ue[0].ipv4.routingTable\""
par UrbanDenseNetwork.ue[0].ipv4.configurator networkConfiguratorModule "\"configurator\""
par UrbanDenseNetwork.ue[0].ipv4.configurator configureRoutingTable true
par UrbanDenseNetwork.ue[0].ipv4.routingTable typename "\"inet.networklayer.ipv4.Ipv4RoutingTable\""
par UrbanDenseNetwork.ue[0].ipv4.routingTable interfaceTableModule "\"UrbanDenseNetwork.ue[0].interfaceTable\""
par UrbanDenseNetwork.ue[0].ipv4.routingTable routerId "\"auto\""
par UrbanDenseNetwork.ue[0].ipv4.routingTable netmaskRoutes "\"*\""
par UrbanDenseNetwork.ue[0].ipv4.routingTable forwarding false
par UrbanDenseNetwork.ue[0].ipv4.routingTable multicastForwarding false
par UrbanDenseNetwork.ue[0].ipv4.routingTable useAdminDist false
par UrbanDenseNetwork.ue[0].ipv4.routingTable routingFile "\"\""
par UrbanDenseNetwork.ue[0].ipv4.natTable typename "\"inet.networklayer.ipv4.Ipv4NatTable\""
par UrbanDenseNetwork.ue[0].ipv4.natTable networkProtocolModule "\"^.ip\""
par UrbanDenseNetwork.ue[0].ipv4.natTable config "<config/> at content:1"
par UrbanDenseNetwork.ue[0].ipv4.up typename "\"inet.common.MessageDispatcher\""
par UrbanDenseNetwork.ue[0].ipv4.up displayStringTextFormat "\"processed %p pk (%l)\""
par UrbanDenseNetwork.ue[0].ipv4.up forwardServiceRegistration true
par UrbanDenseNetwork.ue[0].ipv4.up forwardProtocolRegistration true
par UrbanDenseNetwork.ue[0].ipv4.igmp typename "\"inet.networklayer.ipv4.Igmpv2\""
par UrbanDenseNetwork.ue[0].ipv4.igmp interfaceTableModule "\"UrbanDenseNetwork.ue[0].interfaceTable\""
par UrbanDenseNetwork.ue[0].ipv4.igmp routingTableModule "\"UrbanDenseNetwork.ue[0].ipv4.routingTable\""
par UrbanDenseNetwork.ue[0].ipv4.igmp crcMode "\"declared\""
attr enum declared,computed
par UrbanDenseNetwork.ue[0].ipv4.igmp enabled true
par UrbanDenseNetwork.ue[0].ipv4.igmp robustnessVariable 2
par UrbanDenseNetwork.ue[0].ipv4.igmp queryInterval 125s
attr unit s
par UrbanDenseNetwork.ue[0].ipv4.igmp queryResponseInterval 10s
attr unit s
par UrbanDenseNetwork.ue[0].ipv4.igmp groupMembershipInterval 260s
attr unit s
par UrbanDenseNetwork.ue[0].ipv4.igmp otherQuerierPresentInterval 255s
attr unit s
par UrbanDenseNetwork.ue[0].ipv4.igmp startupQueryInterval 31.25s
attr unit s
par UrbanDenseNetwork.ue[0].ipv4.igmp startupQueryCount 2
par UrbanDenseNetwork.ue[0].ipv4.igmp lastMemberQueryInterval 1s
attr unit s
par UrbanDenseNetwork.ue[0].ipv4.igmp lastMemberQueryCount 2
par UrbanDenseNetwork.ue[0].ipv4.igmp unsolicitedReportInterval 10s
attr unit s
par UrbanDenseNetwork.ue[0].ipv4.icmp typename "\"inet.networklayer.ipv4.Icmp\""
par UrbanDenseNetwork.ue[0].ipv4.icmp interfaceTableModule "\"UrbanDenseNetwork.ue[0].interfaceTable\""
par UrbanDenseNetwork.ue[0].ipv4.icmp routingTableModule "\"UrbanDenseNetwork.ue[0].ipv4.routingTable\""
par UrbanDenseNetwork.ue[0].ipv4.icmp crcMode "\"declared\""
attr enum declared,computed
attr mutable ""
par UrbanDenseNetwork.ue[0].ipv4.icmp quoteLength 8B
attr mutable ""
attr unit B
par UrbanDenseNetwork.ue[0].ipv4.mp typename "\"inet.common.MessageDispatcher\""
par UrbanDenseNetwork.ue[0].ipv4.mp displayStringTextFormat "\"processed %p pk (%l)\""
par UrbanDenseNetwork.ue[0].ipv4.mp forwardServiceRegistration true
par UrbanDenseNetwork.ue[0].ipv4.mp forwardProtocolRegistration true
par UrbanDenseNetwork.ue[0].ipv4.ip typename "\"inet.networklayer.ipv4.Ipv4\""
par UrbanDenseNetwork.ue[0].ipv4.ip interfaceTableModule "\"UrbanDenseNetwork.ue[0].interfaceTable\""
par UrbanDenseNetwork.ue[0].ipv4.ip routingTableModule "\"UrbanDenseNetwork.ue[0].ipv4.routingTable\""
par UrbanDenseNetwork.ue[0].ipv4.ip arpModule "\"UrbanDenseNetwork.ue[0].ipv4.arp\""
par UrbanDenseNetwork.ue[0].ipv4.ip icmpModule "\"UrbanDenseNetwork.ue[0].ipv4.icmp\""
par UrbanDenseNetwork.ue[0].ipv4.ip crcMode "\"declared\""
attr enum declared,computed
par UrbanDenseNetwork.ue[0].ipv4.ip timeToLive 32
par UrbanDenseNetwork.ue[0].ipv4.ip multicastTimeToLive 32
par UrbanDenseNetwork.ue[0].ipv4.ip fragmentTimeout 60s
attr unit s
par UrbanDenseNetwork.ue[0].ipv4.ip limitedBroadcast false
par UrbanDenseNetwork.ue[0].ipv4.ip directBroadcastInterfaces "\"\""
scalar UrbanDenseNetwork.ue[0].ipv4.ip packetDropAddressResolutionFailed:count 0
attr interpolationmode none
attr recordingmode count
attr source packetDropReasonIsAddressResolutionFailed(packetDropped)
attr title "packet drop: address resolution failed, count"
scalar UrbanDenseNetwork.ue[0].ipv4.ip packetDropAddressResolutionFailed:sum(packetBytes) 0
attr interpolationmode none
attr recordingmode sum(packetBytes)
attr source packetDropReasonIsAddressResolutionFailed(packetDropped)
attr title "packet drop: address resolution failed, sum(packetBytes)"
scalar UrbanDenseNetwork.ue[0].ipv4.ip packetDropHopLimitReached:count 0
attr interpolationmode none
attr recordingmode count
attr source packetDropReasonIsHopLimitReached(packetDropped)
attr title "packet drop: hop limit reached, count"
scalar UrbanDenseNetwork.ue[0].ipv4.ip packetDropHopLimitReached:sum(packetBytes) 0
attr interpolationmode none
attr recordingmode sum(packetBytes)
attr source packetDropReasonIsHopLimitReached(packetDropped)
attr title "packet drop: hop limit reached, sum(packetBytes)"
scalar UrbanDenseNetwork.ue[0].ipv4.ip packetDropForwardingDisabled:count 0
attr interpolationmode none
attr recordingmode count
attr source packetDropReasonIsForwardingDisabled(packetDropped)
attr title "packet drop: forwarding disabled, count"
scalar UrbanDenseNetwork.ue[0].ipv4.ip packetDropForwardingDisabled:sum(packetBytes) 0
attr interpolationmode none
attr recordingmode sum(packetBytes)
attr source packetDropReasonIsForwardingDisabled(packetDropped)
attr title "packet drop: forwarding disabled, sum(packetBytes)"
scalar UrbanDenseNetwork.ue[0].ipv4.ip packetDropNoInterfaceFound:count 0
attr interpolationmode none
attr recordingmode count
attr source packetDropReasonIsNoInterfaceFound(packetDropped)
attr title "packet drop: no interface found, count"
scalar UrbanDenseNetwork.ue[0].ipv4.ip packetDropNoInterfaceFound:sum(packetBytes) 0
attr interpolationmode none
attr recordingmode sum(packetBytes)
attr source packetDropReasonIsNoInterfaceFound(packetDropped)
attr title "packet drop: no interface found, sum(packetBytes)"
scalar UrbanDenseNetwork.ue[0].ipv4.ip packetDropNoRouteFound:count 0
attr interpolationmode none
attr recordingmode count
attr source packetDropReasonIsNoRouteFound(packetDropped)
attr title "packet drop: no route found, count"
scalar UrbanDenseNetwork.ue[0].ipv4.ip packetDropNoRouteFound:sum(packetBytes) 0
attr interpolationmode none
attr recordingmode sum(packetBytes)
attr source packetDropReasonIsNoRouteFound(packetDropped)
attr title "packet drop: no route found, sum(packetBytes)"
scalar UrbanDenseNetwork.ue[0].ipv4.ip packetDropUndefined:count 0
attr interpolationmode none
attr recordingmode count
attr source packetDropReasonIsUndefined(packetDropped)
attr title "packet drop: undefined, count"
scalar UrbanDenseNetwork.ue[0].ipv4.ip packetDropUndefined:sum(packetBytes) 0
attr interpolationmode none
attr recordingmode sum(packetBytes)
attr source packetDropReasonIsUndefined(packetDropped)
attr title "packet drop: undefined, sum(packetBytes)"
par UrbanDenseNetwork.ue[0].ipv4.arp typename "\"inet.networklayer.arp.ipv4.Arp\""
par UrbanDenseNetwork.ue[0].ipv4.arp interfaceTableModule "\"UrbanDenseNetwork.ue[0].interfaceTable\""
par UrbanDenseNetwork.ue[0].ipv4.arp routingTableModule "\"UrbanDenseNetwork.ue[0].ipv4.routingTable\""
par UrbanDenseNetwork.ue[0].ipv4.arp retryTimeout 1s
attr unit s
par UrbanDenseNetwork.ue[0].ipv4.arp retryCount 3
par UrbanDenseNetwork.ue[0].ipv4.arp cacheTimeout 120s
attr unit s
par UrbanDenseNetwork.ue[0].ipv4.arp proxyArpInterfaces "\"*\""
scalar UrbanDenseNetwork.ue[0].ipv4.arp arpReplySent:count 0
attr recordingmode count
attr source arpReplySent
attr title "ARP replies sent, count"
scalar UrbanDenseNetwork.ue[0].ipv4.arp arpReplySent:sum(packetBytes) 0
attr recordingmode sum(packetBytes)
attr source arpReplySent
attr title "ARP replies sent, sum(packetBytes)"
scalar UrbanDenseNetwork.ue[0].ipv4.arp arpRequestSent:count 0
attr recordingmode count
attr source arpRequestSent
attr title "ARP request sent, count"
scalar UrbanDenseNetwork.ue[0].ipv4.arp arpRequestSent:sum(packetBytes) 0
attr recordingmode sum(packetBytes)
attr source arpRequestSent
attr title "ARP request sent, sum(packetBytes)"
scalar UrbanDenseNetwork.ue[0].ipv4.arp arpResolutionFailed:count 0
attr recordingmode count
attr title "ARP failed resolutions, count"
scalar UrbanDenseNetwork.ue[0].ipv4.arp arpResolutionCompleted:count 0
attr recordingmode count
attr title "ARP completed resolutions, count"
scalar UrbanDenseNetwork.ue[0].ipv4.arp arpResolutionInitiated:count 0
attr recordingmode count
attr title "ARP initiated resolutions, count"
par UrbanDenseNetwork.ue[0].ipv4.lp typename "\"inet.common.MessageDispatcher\""
par UrbanDenseNetwork.ue[0].ipv4.lp displayStringTextFormat "\"processed %p pk (%l)\""
par UrbanDenseNetwork.ue[0].ipv4.lp forwardServiceRegistration true
par UrbanDenseNetwork.ue[0].ipv4.lp forwardProtocolRegistration true
par UrbanDenseNetwork.ue[0].ipv4 typename "\"inet.networklayer.ipv4.Ipv4NetworkLayer\""
par UrbanDenseNetwork.ue[0].ipv4 forwarding false
par UrbanDenseNetwork.ue[0].ipv4 multicastForwarding false
par UrbanDenseNetwork.ue[0].ipv4 interfaceTableModule "\"UrbanDenseNetwork.ue[0].interfaceTable\""
par UrbanDenseNetwork.ue[0].ipv4 displayStringTextFormat "\"%i\""
par UrbanDenseNetwork.ue[0].udp typename "\"inet.transportlayer.udp.Udp\""
par UrbanDenseNetwork.ue[0].udp interfaceTableModule "\"UrbanDenseNetwork.ue[0].interfaceTable\""
par UrbanDenseNetwork.ue[0].udp icmpModule "\"^.ipv4.icmp\""
par UrbanDenseNetwork.ue[0].udp icmpv6Module "\"^.ipv6.icmpv6\""
par UrbanDenseNetwork.ue[0].udp crcMode "\"declared\""
attr enum disabled,declared,computed
par UrbanDenseNetwork.ue[0].udp defaultMulticastLoop true
scalar UrbanDenseNetwork.ue[0].udp packetReceived:count 0
attr interpolationmode none
attr recordingmode count
attr source packetReceived
attr title "packets received, count"
scalar UrbanDenseNetwork.ue[0].udp packetReceived:sum(packetBytes) 0
attr interpolationmode none
attr recordingmode sum(packetBytes)
attr source packetReceived
attr title "packets received, sum(packetBytes)"
scalar UrbanDenseNetwork.ue[0].udp packetSent:count 0
attr interpolationmode none
attr recordingmode count
attr source packetSent
attr title "packets sent, count"
scalar UrbanDenseNetwork.ue[0].udp packetSent:sum(packetBytes) 0
attr interpolationmode none
attr recordingmode sum(packetBytes)
attr source packetSent
attr title "packets sent, sum(packetBytes)"
scalar UrbanDenseNetwork.ue[0].udp passedUpPk:count 0
attr interpolationmode none
attr recordingmode count
attr source packetSentToUpper
attr title "packets passed up, count"
scalar UrbanDenseNetwork.ue[0].udp droppedPkWrongPort:count 0
attr interpolationmode none
attr recordingmode count
attr source packetDropReasonIsNoPortFound(packetDropped)
attr title "packets dropped (wrong port), count"
scalar UrbanDenseNetwork.ue[0].udp droppedPkBadChecksum:count 0
attr interpolationmode none
attr recordingmode count
attr source packetDropReasonIsIncorrectlyReceived(packetDropped)
attr title "packets dropped (checksum error), count"
par UrbanDenseNetwork.ue[0].tcp typename "\"inet.transportlayer.tcp.Tcp\""
par UrbanDenseNetwork.ue[0].tcp crcMode "\"declared\""
attr enum declared,computed
par UrbanDenseNetwork.ue[0].tcp advertisedWindow 7504
par UrbanDenseNetwork.ue[0].tcp delayedAcksEnabled false
par UrbanDenseNetwork.ue[0].tcp nagleEnabled true
par UrbanDenseNetwork.ue[0].tcp limitedTransmitEnabled false
par UrbanDenseNetwork.ue[0].tcp increasedIWEnabled false
par UrbanDenseNetwork.ue[0].tcp sackSupport false
par UrbanDenseNetwork.ue[0].tcp windowScalingSupport false
par UrbanDenseNetwork.ue[0].tcp windowScalingFactor -1
par UrbanDenseNetwork.ue[0].tcp timestampSupport false
par UrbanDenseNetwork.ue[0].tcp mss 536
par UrbanDenseNetwork.ue[0].tcp msl 120s
attr unit s
par UrbanDenseNetwork.ue[0].tcp tcpAlgorithmClass "\"TcpReno\""
attr enum TcpVegas,TcpWestwood,TcpNewReno,TcpReno,TcpTahoe,TcpNoCongestionControl
par UrbanDenseNetwork.ue[0].tcp useDataNotification false
par UrbanDenseNetwork.ue[0].tcp dupthresh 3
par UrbanDenseNetwork.ue[0].tcp initialSsthresh 4294967295
par UrbanDenseNetwork.ue[0].tcp stopOperationExtraTime 0s
attr unit s
par UrbanDenseNetwork.ue[0].tcp stopOperationTimeout 2s
attr unit s
par UrbanDenseNetwork.ue[0].tcp ecnWillingness false
par UrbanDenseNetwork.ue[0].tcp dctcpGamma 0.0625
par UrbanDenseNetwork.ue[0].app[0] typename "\"simu5g.apps.cbr.CbrReceiver\""
par UrbanDenseNetwork.ue[0].app[0] localPort 1000
scalar UrbanDenseNetwork.ue[0].app[0] cbrReceivedBytes:timeavg nan
attr recordingmode timeavg
attr source cbrReceivedBytesSignal
attr title "Bytes received at the application level, timeavg"
attr unit Bps
scalar UrbanDenseNetwork.ue[0].app[0] cbrReceivedBytes:mean nan
attr recordingmode mean
attr source cbrReceivedBytesSignal
attr title "Bytes received at the application level, mean"
attr unit Bps
scalar UrbanDenseNetwork.ue[0].app[0] cbrReceivedBytes:sum 0
attr recordingmode sum
attr source cbrReceivedBytesSignal
attr title "Bytes received at the application level, sum"
attr unit Bps
scalar UrbanDenseNetwork.ue[0].app[0] cbrReceivedThroughtput:timeavg nan
attr recordingmode timeavg
attr source cbrReceivedThroughtputSignal
attr title "Throughput received at the application level, timeavg"
attr unit Bps
scalar UrbanDenseNetwork.ue[0].app[0] cbrReceivedThroughtput:mean nan
attr recordingmode mean
attr source cbrReceivedThroughtputSignal
attr title "Throughput received at the application level, mean"
attr unit Bps
scalar UrbanDenseNetwork.ue[0].app[0] cbrReceivedThroughtput:sum 0
attr recordingmode sum
attr source cbrReceivedThroughtputSignal
attr title "Throughput received at the application level, sum"
attr unit Bps
scalar UrbanDenseNetwork.ue[0].app[0] cbrJitter:mean nan
attr recordingmode mean
attr source cbrJitterSignal
attr title "Cbr Playout Loss, mean"
attr unit s
scalar UrbanDenseNetwork.ue[0].app[0] cbrFrameDelay:mean nan
attr recordingmode mean
attr source cbrFrameDelaySignal
attr title "Cbr Frame Delay, mean"
attr unit s
scalar UrbanDenseNetwork.ue[0].app[0] cbrFrameLoss:mean nan
attr recordingmode mean
attr source cbrFrameLossSignal
attr title "Cbr Frame Loss, mean"
attr unit ratio
par UrbanDenseNetwork.ue[0].at typename "\"inet.common.MessageDispatcher\""
par UrbanDenseNetwork.ue[0].at displayStringTextFormat "\"processed %p pk (%l)\""
par UrbanDenseNetwork.ue[0].at forwardServiceRegistration true
par UrbanDenseNetwork.ue[0].at forwardProtocolRegistration true
par UrbanDenseNetwork.ue[0].tn typename "\"inet.common.MessageDispatcher\""
par UrbanDenseNetwork.ue[0].tn displayStringTextFormat "\"processed %p pk (%l)\""
par UrbanDenseNetwork.ue[0].tn forwardServiceRegistration true
par UrbanDenseNetwork.ue[0].tn forwardProtocolRegistration true
par UrbanDenseNetwork.ue[0].nl typename "\"inet.common.MessageDispatcher\""
par UrbanDenseNetwork.ue[0].nl displayStringTextFormat "\"processed %p pk (%l)\""
par UrbanDenseNetwork.ue[0].nl forwardServiceRegistration true
par UrbanDenseNetwork.ue[0].nl forwardProtocolRegistration true
par UrbanDenseNetwork.ue[0] typename "\"simu5g.nodes.NR.NRUe\""
par UrbanDenseNetwork.ue[0] numApps 1
par UrbanDenseNetwork.ue[0] hasUdp true
par UrbanDenseNetwork.ue[0] hasTcp true
par UrbanDenseNetwork.ue[0] hasSctp false
par UrbanDenseNetwork.ue[0] nodeType "\"UE\""
par UrbanDenseNetwork.ue[0] masterId 0
attr mutable ""
par UrbanDenseNetwork.ue[0] macNodeId 1025
attr mutable ""
par UrbanDenseNetwork.ue[0] macCellId 0
attr mutable ""
par UrbanDenseNetwork.ue[0] nicType "\"NRNicUe\""
par UrbanDenseNetwork.ue[0] hasIpv4 true
par UrbanDenseNetwork.ue[0] hasIpv6 false
par UrbanDenseNetwork.ue[0] numEthInterfaces 0
par UrbanDenseNetwork.ue[0] extHostAddress "\"\""
par UrbanDenseNetwork.ue[0] numLoInterfaces 1
par UrbanDenseNetwork.ue[0] numPcapRecorders 0
par UrbanDenseNetwork.ue[0] hasRNISupport false
par UrbanDenseNetwork.ue[0] nrMasterId 1
attr mutable ""
par UrbanDenseNetwork.ue[0] nrMacNodeId 2049
attr mutable ""
par UrbanDenseNetwork.ue[0] nrMacCellId 1
attr mutable ""
par UrbanDenseNetwork typename "\"urbandense5gsim.simulations.UrbanDenseNetwork\""
par UrbanDenseNetwork numUe 1
par UrbanDenseNetwork numBgCells 0

